*Heading
** Job name: interlocking-2e Model name: interlocking-1
** Generated by: Abaqus/CAE 2023
*Preprint, echo=NO, model=NO, history=NO, contact=NO
**
** PARTS
**
*Part, name=frame
*Node
      1,   12.0500002,   12.0500002,           0.
      2,   12.0500002,   10.0500002,           0.
      3,   13.0500002,   11.0500002,   1.41421354
      4,   12.0500002,   12.0500002,   1.41421354
      5,   11.0500011,   11.0500011,   1.41421342
      6,   10.0500002,   12.0500002,           0.
      7,   10.0500002,   10.0500002,           0.
      8,   10.0500002,   10.0500002,   1.41421354
      9,   11.0500002,   9.05000019,   1.41421354
     10,   12.0500002,   10.0500002,   1.41421354
     11,   12.0500002,   8.03999996,           0.
     12,   10.0500002,   8.03999996,           0.
     13,   11.0500002,   7.03999996,   1.41421354
     14,   12.0500002,   8.03999996,   1.41421354
     15,   11.0500011,   9.03999996,   1.41421342
     16,   12.0500002,        10.04,           0.
     17,   10.0500002,        10.04,           0.
     18,   10.0500002,        10.04,   1.41421354
     19,   9.05000019,   9.03999996,   1.41421354
     20,   10.0500002,   8.03999996,   1.41421354
** ... 6216 like lines cut
*Element, type=R3D3
1, 2214, 2206, 2212
33, 2221,  183,  184
53, 2232,  182,  181
73, 2258, 2252, 2259
104, 2281, 2274, 2279
136, 2288,  225,  226
156, 2298, 2295, 2302
175, 2324, 2326, 2318
207, 2335, 2332, 2328
226, 2344,  259,  260
246, 2359, 2350, 2351
247, 2358, 2357, 2356
248, 2355,  271,  272
267, 2366,  266,  265
287, 2382, 2381, 2380
288, 2383, 2375, 2374
289, 2378,  268,  267
308, 2394, 2390, 2387
327, 2416, 2407, 2397
328, 2419, 2401, 2417
** ... 384 like lines cut
*Element, type=R3D4
 2,  175, 2201, 2199,  174
 3, 2209, 2200, 2212, 2206
 4,  169, 2194, 2195,  168
 5,  168, 2195, 2196,  167
 6,  167, 2196,  166,    2
 7, 2198, 2197, 2205, 2207
 8, 2205, 2195, 2194, 2209
 9, 2199, 2212, 2200, 2193
10, 2193, 2200,  171,  172
11,  173, 2193,  172,    3
12, 2210, 2213, 2211, 2202
13, 2198, 2210,  163,  164
14,  162, 2202, 2204,  161
15,  161, 2204,  178,    1
16, 2193,  173,  174, 2199
17, 2197, 2198,  164,  165
18,  169,  170, 2209, 2194
19, 2197, 2196, 2195, 2205
20,  165,  166, 2196, 2197
21, 2207, 2206, 2214, 2213
** ... 5982 like lines cut
*Node
   6237,   10.5500011,   10.5500011,   1.41421342
*Nset, nset=frame-RefPt_, internal
6237, 
*Elset, elset=frame, generate
    1,  6406,     1
*End Part
**  
*Part, name=interlocking
*Node
      1,   8.03999996,        10.04,           0.
      2,        10.04,   8.03999996,           0.
      3,   8.03999996,   8.03999996,           0.
      4,   9.03999996,   9.03999996,   1.41421342
      5,   8.03999996,   8.03999996,   1.41421354
      6,   7.03999996,   9.03999996,   1.41421354
      7,        10.04,        10.04,           0.
      8,   8.03999996,        10.04,   1.41421354
      9,   9.03999996,        11.04,   1.41421354
     10,        10.04,        10.04,   1.41421354
     11,        10.04,   8.02999973,           0.
     12,   8.03999996,   6.03000021,           0.
     13,   8.03999996,   8.02999973,           0.
     14,   9.03999996,   7.02999973,   1.41421342
     15,   8.03999996,   8.02999973,   1.41421354
     16,   9.03999996,   9.02999973,   1.41421354
     17,        10.04,   6.03000021,           0.
     18,        10.04,   8.02999973,   1.41421354
     19,        11.04,   7.03000021,   1.41421354
     20,        10.04,   6.03000021,   1.41421354
** ... 31599 like lines cut
*Element, type=C3D10M
   1, 2728, 2729, 1360, 2730, 4760, 4759, 4758, 4762, 4761, 4763
   2, 2728, 2731, 2732, 2733, 4766, 4765, 4764, 4768, 4767, 4769
   3, 2728, 1358, 2734, 2732, 4772, 4771, 4770, 4764, 4773, 4774
   4, 2728, 2735, 2733, 2734, 4776, 4775, 4768, 4770, 4777, 4778
   5, 2728, 2735, 1361, 2729, 4776, 4780, 4779, 4760, 4781, 4782
   6, 2736, 2737, 2738, 2739, 4785, 4784, 4783, 4787, 4786, 4788
   7, 2736, 2740, 2741, 2742, 4791, 4790, 4789, 4793, 4792, 4794
   8, 2736, 2739, 2740, 2737, 4787, 4795, 4791, 4785, 4786, 4796
   9, 2743, 2736, 2744, 2745, 4799, 4798, 4797, 4801, 4800, 4802
  10, 2736, 2738, 2746, 2745, 4783, 4804, 4803, 4800, 4805, 4806
  11, 2736, 2747, 2738, 1366, 4808, 4807, 4783, 4810, 4809, 4811
  12, 2736, 2748, 2749, 2741, 4814, 4813, 4812, 4789, 4815, 4816
  13, 2749,  172, 2748, 2736, 4818, 4817, 4813, 4812, 4819, 4814
  14, 2750, 2751, 2752, 2753, 4822, 4821, 4820, 4824, 4823, 4825
  15, 2750, 2751, 2754, 2752, 4822, 4827, 4826, 4820, 4821, 4828
  16, 2731, 2755, 2756, 2757, 4831, 4830, 4829, 4833, 4832, 4834
  17, 2728, 2758,  162, 1364, 4837, 4836, 4835, 4839, 4838, 4840
  18, 2728, 2731, 1360,  162, 4766, 4841, 4758, 4835, 4842, 4843
  19, 2731, 2733, 2730, 2759, 4767, 4845, 4844, 4847, 4846, 4848
  20, 2728, 2733, 2732, 2734, 4768, 4769, 4764, 4770, 4778, 4774
** ... 19385 like lines cut
*Nset, nset=Set-1, generate
     1,  31619,      1
*Elset, elset=Set-1, generate
     1,  19405,      1
** Section: Section-1
*Solid Section, elset=Set-1, material=high-strength
,
*End Part
**  
**
** ASSEMBLY
**
*Assembly, name=Assembly
**  
*Instance, name=f1, part=frame
*End Instance
**  
*Instance, name=interlocking-1, part=interlocking
*End Instance
**  
*Nset, nset=Set-1, instance=f1, generate
    1,  6237,     1
*Elset, elset=Set-1, instance=f1, generate
    1,  6406,     1
*Elset, elset=_CP-50-interlocking-1_S3, internal, instance=interlocking-1
 1019, 1462, 1463, 1502, 1512, 1541, 1546, 1548, 1562, 1564, 1566, 1571, 1588, 1592, 1604, 1666
 1671, 1690, 1781, 1796, 1883, 1952, 2112, 2157
*Elset, elset=_CP-50-interlocking-1_S4, internal, instance=interlocking-1
 1525,
*Elset, elset=_CP-50-interlocking-1_S2, internal, instance=interlocking-1
 1560,
*Elset, elset=_CP-50-interlocking-1_S1, internal, instance=interlocking-1
 1563, 1567, 1586
*Surface, type=ELEMENT, name=CP-50-interlocking-1
_CP-50-interlocking-1_S3, S3
_CP-50-interlocking-1_S4, S4
_CP-50-interlocking-1_S2, S2
_CP-50-interlocking-1_S1, S1
*Elset, elset=_CP-51-interlocking-1_S3, internal, instance=interlocking-1
   72,  775,  786,  939, 1138, 1151, 1375, 1393, 1399, 1400, 1407, 1413, 1480, 1668, 1673, 1695
 1703, 1705, 1706, 1714, 1724, 1733, 1745, 1756, 1761, 1790, 1836, 1854, 1857, 1935, 2039, 2118
 2120,
*Elset, elset=_CP-51-interlocking-1_S2, internal, instance=interlocking-1
   84,  756, 1066, 1731, 1780, 1925, 2126, 2139, 2142
*Elset, elset=_CP-51-interlocking-1_S1, internal, instance=interlocking-1
 1350, 1713, 1729, 1739
*Elset, elset=_CP-51-interlocking-1_S4, internal, instance=interlocking-1
 1722, 1779, 2030
*Surface, type=ELEMENT, name=CP-51-interlocking-1
_CP-51-interlocking-1_S3, S3
_CP-51-interlocking-1_S2, S2
_CP-51-interlocking-1_S4, S4
_CP-51-interlocking-1_S1, S1
*Elset, elset=_CP-52-interlocking-1_S3, internal, instance=interlocking-1
 2260, 2468, 2493, 2502, 2824, 2908, 3134, 3138, 3231, 3248, 3462, 3467, 3524, 3556, 3608, 3665
 3685, 3688, 3732, 3740, 3743, 3746, 3748, 3752, 3762, 3777, 3778, 3782, 3785, 3788, 3797, 3826
 3971, 3987, 3991, 3995, 3999, 4000, 4047, 4061, 4069, 4071, 4083, 4086, 4087, 4088, 4092, 4094
 4102, 4108, 4127, 4129, 4153, 4166, 4305
*Elset, elset=_CP-52-interlocking-1_S4, internal, instance=interlocking-1
 2396, 4115
*Elset, elset=_CP-52-interlocking-1_S1, internal, instance=interlocking-1
 4073,
*Surface, type=ELEMENT, name=CP-52-interlocking-1
_CP-52-interlocking-1_S3, S3
_CP-52-interlocking-1_S4, S4
_CP-52-interlocking-1_S1, S1
*Elset, elset=_CP-53-interlocking-1_S3, internal, instance=interlocking-1
 2630, 2791, 2948, 3002, 3072, 3250, 3301, 3433, 3616, 3619, 3637, 3742, 3751, 3756, 3763, 3764
 3765, 3830, 3831, 3835, 3836, 3907, 3908, 3941, 3942, 3947, 3949, 3955, 3956, 3957, 3962, 3968
 3977, 3978, 3989, 3996, 4001, 4002, 4009, 4011, 4016, 4021, 4022, 4051, 4100, 4177, 4301
*Elset, elset=_CP-53-interlocking-1_S4, internal, instance=interlocking-1
 3638, 3817
*Surface, type=ELEMENT, name=CP-53-interlocking-1
_CP-53-interlocking-1_S3, S3
_CP-53-interlocking-1_S4, S4
*Elset, elset=_CP-54-interlocking-1_S1, internal, instance=interlocking-1
 2275,
*Elset, elset=_CP-54-interlocking-1_S3, internal, instance=interlocking-1
 2277, 2718, 3615, 3657, 3658, 3691, 3695, 3713, 3714, 3715, 3716, 3720, 3726, 3729, 3730, 3733
 3734, 3736, 3739, 3753, 3755, 3758, 3896, 3952, 4046
*Elset, elset=_CP-54-interlocking-1_S4, internal, instance=interlocking-1
 2769,
*Elset, elset=_CP-54-interlocking-1_S2, internal, instance=interlocking-1
 2853, 3741
*Surface, type=ELEMENT, name=CP-54-interlocking-1
_CP-54-interlocking-1_S1, S1
_CP-54-interlocking-1_S3, S3
_CP-54-interlocking-1_S4, S4
_CP-54-interlocking-1_S2, S2
*Elset, elset=_CP-55-interlocking-1_S3, internal, instance=interlocking-1
 4379, 5379, 5402, 5489, 5607, 5845, 5857, 5859, 5873, 5883, 5886, 5889, 5894, 5897, 5901, 5903
 5905, 5914, 5987, 6026, 6141, 6165, 6174
*Elset, elset=_CP-55-interlocking-1_S4, internal, instance=interlocking-1
 5241, 6251
*Elset, elset=_CP-55-interlocking-1_S2, internal, instance=interlocking-1
 5878, 5915
*Elset, elset=_CP-55-interlocking-1_S1, internal, instance=interlocking-1
 5904, 5943
*Surface, type=ELEMENT, name=CP-55-interlocking-1
_CP-55-interlocking-1_S3, S3
_CP-55-interlocking-1_S4, S4
_CP-55-interlocking-1_S2, S2
_CP-55-interlocking-1_S1, S1
*Elset, elset=_CP-56-interlocking-1_S3, internal, instance=interlocking-1
 4383, 4808, 4853, 5478, 5481, 5513, 5663, 5672, 5806, 5836, 5924, 5962, 5996, 6022, 6034, 6036
 6055, 6066, 6076, 6078, 6084, 6093, 6108, 6112, 6128, 6134, 6137, 6169, 6191, 6247, 6451
*Elset, elset=_CP-56-interlocking-1_S2, internal, instance=interlocking-1
 4399, 4545, 5921, 6052, 6233, 6242, 6483
*Elset, elset=_CP-56-interlocking-1_S4, internal, instance=interlocking-1
 5007, 5424, 5948, 6056, 6119, 6355
*Elset, elset=_CP-56-interlocking-1_S1, internal, instance=interlocking-1
 6013, 6051, 6064, 6073, 6080
*Surface, type=ELEMENT, name=CP-56-interlocking-1
_CP-56-interlocking-1_S3, S3
_CP-56-interlocking-1_S2, S2
_CP-56-interlocking-1_S4, S4
_CP-56-interlocking-1_S1, S1
*Elset, elset=_CP-57-interlocking-1_S3, internal, instance=interlocking-1
  666,  691,  782,  828,  923,  975, 1385, 1448, 1474, 1513, 1528, 1536, 1577, 1589, 1596, 1602
 1615, 1616, 1621, 1623, 1665, 1685, 1702, 1785, 1792, 1797, 1805, 1813, 1814, 1817, 1823, 1825
 1829, 1832, 1837, 1840, 1847, 1848, 1860, 1873, 1879, 1880, 1886, 1889, 1892, 1962, 1973, 2007
*Elset, elset=_CP-57-interlocking-1_S4, internal, instance=interlocking-1
 1844,
*Surface, type=ELEMENT, name=CP-57-interlocking-1
_CP-57-interlocking-1_S3, S3
_CP-57-interlocking-1_S4, S4
*Elset, elset=_CP-58-interlocking-1_S3, internal, instance=interlocking-1
  261,  578,  582,  678, 1018, 1089, 1090, 1118, 1127, 1543, 1560, 1563, 1567, 1569, 1570, 1572
 1574, 1575, 1580, 1584, 1587, 1605, 1627, 1757, 1882, 2135
*Elset, elset=_CP-58-interlocking-1_S1, internal, instance=interlocking-1
 1006,
*Elset, elset=_CP-58-interlocking-1_S2, internal, instance=interlocking-1
 1568, 1586
*Surface, type=ELEMENT, name=CP-58-interlocking-1
_CP-58-interlocking-1_S3, S3
_CP-58-interlocking-1_S1, S1
_CP-58-interlocking-1_S2, S2
*Elset, elset=_CP-59-interlocking-1_S2, internal, instance=interlocking-1
 4480, 5976, 6224, 6411, 6419
*Elset, elset=_CP-59-interlocking-1_S3, internal, instance=interlocking-1
 4848, 4974, 5446, 5692, 5693, 5695, 5696, 5743, 5744, 5746, 5828, 5849, 5906, 5921, 6045, 6051
 6053, 6119, 6121, 6194, 6238, 6242, 6355, 6402, 6403, 6414, 6430, 6434, 6444, 6446, 6448, 6460
 6475, 6479
*Elset, elset=_CP-59-interlocking-1_S4, internal, instance=interlocking-1
 5475, 5697, 5982, 6008, 6222, 6417, 6420
*Elset, elset=_CP-59-interlocking-1_S1, internal, instance=interlocking-1
 6192, 6407, 6416
*Surface, type=ELEMENT, name=CP-59-interlocking-1
_CP-59-interlocking-1_S2, S2
_CP-59-interlocking-1_S3, S3
_CP-59-interlocking-1_S4, S4
_CP-59-interlocking-1_S1, S1
*Elset, elset=_CP-60-interlocking-1_S3, internal, instance=interlocking-1
 4460, 4660, 5926, 6139, 6206, 6231, 6234, 6240, 6266, 6286, 6290, 6299, 6316, 6322, 6324, 6332
 6342, 6365, 6371, 6372, 6377, 6382, 6388, 6389, 6390, 6393, 6397, 6452, 6487
*Surface, type=ELEMENT, name=CP-60-interlocking-1
_CP-60-interlocking-1_S3, S3
*Elset, elset=_CP-61-interlocking-1_S3, internal, instance=interlocking-1
 7029, 7134, 7403, 7457, 7697, 7904, 7961, 7964, 7973, 7986, 7995, 7996, 8000, 8002, 8007, 8023
 8033, 8143, 8157, 8222, 8224, 8279, 8286
*Elset, elset=_CP-61-interlocking-1_S1, internal, instance=interlocking-1
 8006, 8009, 8017, 8035
*Elset, elset=_CP-61-interlocking-1_S2, internal, instance=interlocking-1
 8020, 8599
*Surface, type=ELEMENT, name=CP-61-interlocking-1
_CP-61-interlocking-1_S3, S3
_CP-61-interlocking-1_S1, S1
_CP-61-interlocking-1_S2, S2
*Elset, elset=_CP-62-interlocking-1_S3, internal, instance=interlocking-1
 6762, 6976, 7052, 7490, 7539, 7673, 7674, 7703, 7705, 7758, 7781, 7832, 7837, 7843, 7851, 7855
 7866, 7971, 8046, 8174, 8181, 8198, 8205, 8207, 8212, 8229, 8237, 8318, 8439, 8533, 8610
*Elset, elset=_CP-62-interlocking-1_S4, internal, instance=interlocking-1
 6983, 7057, 7968
*Elset, elset=_CP-62-interlocking-1_S1, internal, instance=interlocking-1
 7067, 7091, 8076, 8177, 8255, 8580, 8625
*Elset, elset=_CP-62-interlocking-1_S2, internal, instance=interlocking-1
 7891, 8148, 8172, 8175, 8273, 8296, 8554, 8600
*Surface, type=ELEMENT, name=CP-62-interlocking-1
_CP-62-interlocking-1_S3, S3
_CP-62-interlocking-1_S4, S4
_CP-62-interlocking-1_S2, S2
_CP-62-interlocking-1_S1, S1
*Elset, elset=_CP-63-interlocking-1_S3, internal, instance=interlocking-1
  106,  236,  397,  620,  624,  814,  858, 1267, 1268, 1337, 1339, 1438, 1507, 1515, 1520, 1523
 1531, 1532, 1535, 1538, 1549, 1582, 1583, 1597, 1601, 1614, 1632, 1634, 1640, 1677, 1680, 1691
 1692, 1833, 1884, 1885, 1904, 1906, 1917, 1930, 1939, 1951, 1955, 1958, 1964, 1968, 1974, 1988
 2042, 2063, 2154, 2156
*Elset, elset=_CP-63-interlocking-1_S1, internal, instance=interlocking-1
 1238,
*Elset, elset=_CP-63-interlocking-1_S2, internal, instance=interlocking-1
 1246, 1607, 1630, 1815
*Elset, elset=_CP-63-interlocking-1_S4, internal, instance=interlocking-1
 1897,
*Surface, type=ELEMENT, name=CP-63-interlocking-1
_CP-63-interlocking-1_S3, S3
_CP-63-interlocking-1_S1, S1
_CP-63-interlocking-1_S2, S2
_CP-63-interlocking-1_S4, S4
*Elset, elset=_CP-64-interlocking-1_S3, internal, instance=interlocking-1
 11673, 11677, 11782, 11957, 12096, 12175, 12214, 12380, 12754, 12756, 12817, 12832, 12845, 12875, 12886, 12931
 12933, 12937, 12939, 12952, 12955
*Elset, elset=_CP-64-interlocking-1_S4, internal, instance=interlocking-1
 11900, 12324, 12704, 12959
*Elset, elset=_CP-64-interlocking-1_S2, internal, instance=interlocking-1
 12536, 12769
*Elset, elset=_CP-64-interlocking-1_S1, internal, instance=interlocking-1
 12800, 12821
*Surface, type=ELEMENT, name=CP-64-interlocking-1
_CP-64-interlocking-1_S3, S3
_CP-64-interlocking-1_S4, S4
_CP-64-interlocking-1_S2, S2
_CP-64-interlocking-1_S1, S1
*Elset, elset=_CP-65-interlocking-1_S3, internal, instance=interlocking-1
 10828, 10988, 10989, 10996, 11009, 11030, 11042, 11081, 11109, 11126, 11265, 11302, 11337, 11448, 11779, 11856
 11987, 12034, 12109, 12117, 12149, 12220, 12239, 12257, 12264, 12286, 12291, 12292, 12294, 12390, 12596, 12616
 12618, 12791, 12805, 12806, 12809, 12815, 12851, 12857, 12864, 12866, 12868, 12935
*Elset, elset=_CP-65-interlocking-1_S4, internal, instance=interlocking-1
 10978, 11453, 12782
*Elset, elset=_CP-65-interlocking-1_S1, internal, instance=interlocking-1
 12744, 12824
*Surface, type=ELEMENT, name=CP-65-interlocking-1
_CP-65-interlocking-1_S3, S3
_CP-65-interlocking-1_S4, S4
_CP-65-interlocking-1_S1, S1
*Elset, elset=_CP-66-interlocking-1_S3, internal, instance=interlocking-1
 13057, 13109, 13193, 13594, 13620, 13746, 13938, 14149, 14274, 14503, 14509, 14516, 14518, 14519, 14577, 14586
 14596, 14617, 14648, 14659, 14661, 14672, 14690, 14696, 14697, 14707, 14708, 14714, 14719, 14720, 14721, 14728
 14736, 14740, 14744, 14748, 14756, 14757, 14759, 14765, 14775, 14785, 14797, 14813, 14997, 15049, 15056
*Elset, elset=_CP-66-interlocking-1_S2, internal, instance=interlocking-1
 14376,
*Elset, elset=_CP-66-interlocking-1_S4, internal, instance=interlocking-1
 14699,
*Surface, type=ELEMENT, name=CP-66-interlocking-1
_CP-66-interlocking-1_S3, S3
_CP-66-interlocking-1_S2, S2
_CP-66-interlocking-1_S4, S4
*Elset, elset=_CP-67-interlocking-1_S3, internal, instance=interlocking-1
 13037, 13220, 13506, 13596, 14121, 14340, 14381, 14445, 14448, 14461, 14467, 14471, 14472, 14474, 14475, 14476
 14479, 14481, 14483, 14485, 14487, 14488, 14490, 14551, 14641, 14658, 14712, 14713
*Elset, elset=_CP-67-interlocking-1_S2, internal, instance=interlocking-1
 14491,
*Surface, type=ELEMENT, name=CP-67-interlocking-1
_CP-67-interlocking-1_S3, S3
_CP-67-interlocking-1_S2, S2
*Elset, elset=_CP-68-interlocking-1_S1, internal, instance=interlocking-1
 17909, 18835, 19063, 19169, 19289, 19293
*Elset, elset=_CP-68-interlocking-1_S4, internal, instance=interlocking-1
 17956, 18889, 18999, 19296
*Elset, elset=_CP-68-interlocking-1_S3, internal, instance=interlocking-1
 18452, 18554, 18565, 18570, 18596, 18603, 18680, 18693, 18927, 18965, 18993, 18998, 19051, 19113, 19115, 19118
 19124, 19130, 19235, 19275, 19276, 19280, 19285, 19302, 19303, 19307, 19308, 19321, 19323, 19334, 19335, 19336
 19341, 19351
*Elset, elset=_CP-68-interlocking-1_S2, internal, instance=interlocking-1
 18862, 18881, 18991, 19102, 19121
*Surface, type=ELEMENT, name=CP-68-interlocking-1
_CP-68-interlocking-1_S1, S1
_CP-68-interlocking-1_S4, S4
_CP-68-interlocking-1_S2, S2
_CP-68-interlocking-1_S3, S3
*Elset, elset=_CP-69-interlocking-1_S3, internal, instance=interlocking-1
 17348, 17533, 17904, 18691, 18815, 19080, 19119, 19123, 19154, 19155, 19165, 19166, 19175, 19178, 19186, 19197
 19198, 19206, 19209, 19228, 19247, 19248, 19257, 19258, 19269, 19271, 19274, 19361
*Elset, elset=_CP-69-interlocking-1_S1, internal, instance=interlocking-1
 17409,
*Surface, type=ELEMENT, name=CP-69-interlocking-1
_CP-69-interlocking-1_S3, S3
_CP-69-interlocking-1_S1, S1
*Elset, elset=_CP-70-interlocking-1_S3, internal, instance=interlocking-1
 10976, 11121, 11237, 11325, 11371, 11458, 11827, 11867, 11909, 11912, 12054, 12242, 12322, 12357, 12375, 12389
 12395, 12402, 12412, 12414, 12415, 12417, 12423, 12424, 12435, 12439, 12451, 12467, 12469, 12471, 12475, 12485
 12495, 12574, 12629, 12644, 12649, 12699, 12700, 12701, 12702, 12707, 12723, 12725, 12727, 12736, 12738, 12747
 12758, 12761, 12768
*Elset, elset=_CP-70-interlocking-1_S1, internal, instance=interlocking-1
 10993, 11472
*Elset, elset=_CP-70-interlocking-1_S2, internal, instance=interlocking-1
 12476,
*Elset, elset=_CP-70-interlocking-1_S4, internal, instance=interlocking-1
 11233, 11807, 12713, 12873
*Surface, type=ELEMENT, name=CP-70-interlocking-1
_CP-70-interlocking-1_S3, S3
_CP-70-interlocking-1_S1, S1
_CP-70-interlocking-1_S2, S2
_CP-70-interlocking-1_S4, S4
*Elset, elset=_CP-71-interlocking-1_S4, internal, instance=interlocking-1
 13039, 13044, 13611, 13791, 14260
*Elset, elset=_CP-71-interlocking-1_S3, internal, instance=interlocking-1
 13244, 13456, 13503, 13576, 13582, 13734, 13743, 13777, 13778, 13915, 14013, 14017, 14105, 14123, 14418, 14438
 14441, 14459, 14489, 14498, 14504, 14505, 14508, 14510, 14512, 14514, 14522, 14528, 14531, 14550, 14558, 14559
 14564, 14575, 14576, 14579, 14585, 14716, 14799, 14800, 14805, 14815, 14820, 14833, 14845, 14909, 14981, 14987
 15040, 15043, 15052
*Elset, elset=_CP-71-interlocking-1_S1, internal, instance=interlocking-1
 15070,
*Elset, elset=_CP-71-interlocking-1_S2, internal, instance=interlocking-1
 14527,
*Surface, type=ELEMENT, name=CP-71-interlocking-1
_CP-71-interlocking-1_S4, S4
_CP-71-interlocking-1_S3, S3
_CP-71-interlocking-1_S2, S2
_CP-71-interlocking-1_S1, S1
*Elset, elset=_CP-72-interlocking-1_S3, internal, instance=interlocking-1
 13229, 13330, 13443, 13481, 13496, 13564, 13567, 13583, 13651, 14045, 14530, 14737, 14904, 14905, 14917, 15002
 15005, 15024, 15036, 15047, 15048, 15053, 15066, 15074
*Elset, elset=_CP-72-interlocking-1_S1, internal, instance=interlocking-1
 13566,
*Elset, elset=_CP-72-interlocking-1_S4, internal, instance=interlocking-1
 14343, 14908
*Elset, elset=_CP-72-interlocking-1_S2, internal, instance=interlocking-1
 14913, 14944
*Surface, type=ELEMENT, name=CP-72-interlocking-1
_CP-72-interlocking-1_S3, S3
_CP-72-interlocking-1_S1, S1
_CP-72-interlocking-1_S4, S4
_CP-72-interlocking-1_S2, S2
*Elset, elset=_CP-73-interlocking-1_S3, internal, instance=interlocking-1
 12986, 13006, 13138, 13159, 13165, 13237, 13250, 13287, 13491, 13649, 13650, 13747, 13793, 13845, 13891, 13934
 13989, 13995, 14044, 14046, 14049, 14205, 14247, 14282, 14364, 14416, 14495, 14496, 14542, 14552, 14570, 14706
 14773, 14779, 14855, 14889, 14890, 14895, 14911, 14941, 14946, 15007, 15042, 15054, 15061, 15064
*Elset, elset=_CP-73-interlocking-1_S2, internal, instance=interlocking-1
 13718,
*Elset, elset=_CP-73-interlocking-1_S1, internal, instance=interlocking-1
 14969,
*Elset, elset=_CP-73-interlocking-1_S4, internal, instance=interlocking-1
 15072,
*Surface, type=ELEMENT, name=CP-73-interlocking-1
_CP-73-interlocking-1_S3, S3
_CP-73-interlocking-1_S2, S2
_CP-73-interlocking-1_S4, S4
_CP-73-interlocking-1_S1, S1
*Elset, elset=_CP-74-interlocking-1_S1, internal, instance=interlocking-1
 15658,
*Elset, elset=_CP-74-interlocking-1_S3, internal, instance=interlocking-1
 15670, 15685, 16333, 16375, 16670, 16737, 16750, 16776, 16792, 16796, 16797, 16802, 16836, 16838, 16852, 16943
 16966, 17009, 17010, 17079, 17107, 17112, 17138, 17147, 17149, 17168, 17169, 17170, 17178, 17180, 17181, 17191
 17207,
*Elset, elset=_CP-74-interlocking-1_S4, internal, instance=interlocking-1
 15710, 16664, 16765, 16849, 17077, 17119, 17136
*Elset, elset=_CP-74-interlocking-1_S2, internal, instance=interlocking-1
 15885, 16947, 16968, 17104, 17118, 17195, 17197, 17205
*Surface, type=ELEMENT, name=CP-74-interlocking-1
_CP-74-interlocking-1_S1, S1
_CP-74-interlocking-1_S3, S3
_CP-74-interlocking-1_S4, S4
_CP-74-interlocking-1_S2, S2
*Elset, elset=_CP-75-interlocking-1_S3, internal, instance=interlocking-1
 15546, 15988, 16675, 16961, 16975, 17006, 17019, 17028, 17040, 17042, 17052, 17057, 17064, 17069, 17083, 17084
 17086, 17087, 17088, 17091, 17096, 17114, 17115, 17123, 17124, 17192, 17220, 17232
*Elset, elset=_CP-75-interlocking-1_S4, internal, instance=interlocking-1
 17050,
*Surface, type=ELEMENT, name=CP-75-interlocking-1
_CP-75-interlocking-1_S3, S3
_CP-75-interlocking-1_S4, S4
*Elset, elset=_CP-76-interlocking-1_S3, internal, instance=interlocking-1
 17296, 17353, 17405, 17858, 17879, 17888, 17971, 18133, 18376, 18377, 18420, 18422, 18424, 18507, 18614, 18668
 18745, 18746, 18749, 18750, 18751, 18762, 18764, 18799, 18802, 18821, 18825, 18826, 18833, 18846, 18854, 18857
 18886, 18904, 19071, 19085, 19088, 19092, 19097, 19117, 19142, 19157, 19162, 19163, 19167, 19168, 19170, 19184
 19196, 19202, 19204, 19395, 19404, 19405
*Elset, elset=_CP-76-interlocking-1_S4, internal, instance=interlocking-1
 18002, 19143
*Elset, elset=_CP-76-interlocking-1_S1, internal, instance=interlocking-1
 18373, 19402
*Surface, type=ELEMENT, name=CP-76-interlocking-1
_CP-76-interlocking-1_S3, S3
_CP-76-interlocking-1_S4, S4
_CP-76-interlocking-1_S1, S1
*Elset, elset=_CP-77-interlocking-1_S3, internal, instance=interlocking-1
 17524, 17795, 18005, 18015, 18358, 18655, 18985, 19005, 19152, 19173, 19174, 19255, 19256, 19270, 19297, 19300
 19309, 19322, 19330, 19381, 19397, 19398, 19403
*Elset, elset=_CP-77-interlocking-1_S1, internal, instance=interlocking-1
 18444, 19198
*Elset, elset=_CP-77-interlocking-1_S2, internal, instance=interlocking-1
 19154, 19361
*Elset, elset=_CP-77-interlocking-1_S4, internal, instance=interlocking-1
 19165, 19232
*Surface, type=ELEMENT, name=CP-77-interlocking-1
_CP-77-interlocking-1_S3, S3
_CP-77-interlocking-1_S1, S1
_CP-77-interlocking-1_S2, S2
_CP-77-interlocking-1_S4, S4
*Elset, elset=_CP-78-interlocking-1_S3, internal, instance=interlocking-1
 17311, 17335, 17352, 17374, 17561, 17790, 18010, 18046, 18091, 18173, 18237, 18278, 18293, 18433, 18437, 18448
 18581, 18645, 18646, 18648, 18689, 18813, 18820, 18858, 18910, 18919, 19011, 19013, 19015, 19151, 19176, 19212
 19213, 19245, 19246, 19264, 19266, 19273, 19319, 19329, 19346, 19373, 19380, 19389, 19391, 19396
*Elset, elset=_CP-78-interlocking-1_S4, internal, instance=interlocking-1
 19201,
*Elset, elset=_CP-78-interlocking-1_S2, internal, instance=interlocking-1
 19227, 19379
*Surface, type=ELEMENT, name=CP-78-interlocking-1
_CP-78-interlocking-1_S3, S3
_CP-78-interlocking-1_S4, S4
_CP-78-interlocking-1_S2, S2
*Elset, elset=_CP-79-interlocking-1_S3, internal, instance=interlocking-1
   63,   97,  122,  124,  268,  302,  328,  367,  524,  585,  637,  659,  674,  688,  820,  853
 1007, 1063, 1125, 1210, 1286, 1351, 1382, 1389, 1440, 1459, 1550, 1593, 1641, 1676, 1696, 1810
 1907, 1913, 1918, 1979, 1982, 2005, 2017, 2025, 2038, 2060, 2093, 2109, 2121, 2152
*Elset, elset=_CP-79-interlocking-1_S1, internal, instance=interlocking-1
  325, 2026
*Elset, elset=_CP-79-interlocking-1_S2, internal, instance=interlocking-1
 1458,
*Surface, type=ELEMENT, name=CP-79-interlocking-1
_CP-79-interlocking-1_S3, S3
_CP-79-interlocking-1_S1, S1
_CP-79-interlocking-1_S2, S2
*Elset, elset=_CP-80-interlocking-1_S3, internal, instance=interlocking-1
 6984, 7023, 7545, 7554, 7611, 7844, 7850, 7864, 7865, 7940, 8064, 8076, 8154, 8206, 8214, 8219
 8246, 8254, 8255, 8261, 8262, 8362, 8481, 8487, 8491, 8497, 8537, 8541, 8550, 8554, 8563, 8570
 8574, 8575, 8580
*Elset, elset=_CP-80-interlocking-1_S1, internal, instance=interlocking-1
 7448, 8230, 8342, 8466, 8551
*Elset, elset=_CP-80-interlocking-1_S4, internal, instance=interlocking-1
 8053, 8095, 8120, 8124, 8136, 8260, 8548, 8552
*Elset, elset=_CP-80-interlocking-1_S2, internal, instance=interlocking-1
 8343,
*Surface, type=ELEMENT, name=CP-80-interlocking-1
_CP-80-interlocking-1_S3, S3
_CP-80-interlocking-1_S1, S1
_CP-80-interlocking-1_S4, S4
_CP-80-interlocking-1_S2, S2
*Elset, elset=_CP-81-interlocking-1_S3, internal, instance=interlocking-1
 7946, 8070, 8125, 8173, 8358, 8370, 8377, 8388, 8389, 8391, 8401, 8406, 8409, 8410, 8422, 8444
 8452, 8458, 8477, 8503, 8504, 8506, 8511, 8520, 8522, 8529, 8594, 8614, 8617
*Surface, type=ELEMENT, name=CP-81-interlocking-1
_CP-81-interlocking-1_S3, S3
*Elset, elset=_CP-82-interlocking-1_S3, internal, instance=interlocking-1
   61,  488,  558,  588, 1108, 1175, 1223, 1313, 1323, 1434, 1455, 1769, 1919, 1976, 1977, 2021
 2022, 2075, 2103, 2107, 2123, 2132, 2141, 2144, 2147
*Elset, elset=_CP-82-interlocking-1_S4, internal, instance=interlocking-1
 1613, 2170
*Elset, elset=_CP-82-interlocking-1_S2, internal, instance=interlocking-1
 1971, 2001
*Surface, type=ELEMENT, name=CP-82-interlocking-1
_CP-82-interlocking-1_S3, S3
_CP-82-interlocking-1_S4, S4
_CP-82-interlocking-1_S2, S2
*Elset, elset=_CP-83-interlocking-1_S3, internal, instance=interlocking-1
  310, 1613, 1620, 1715, 1788, 1798, 1799, 1802, 1911, 1914, 1923, 1946, 1970, 1971, 1981, 1999
 2000, 2001, 2028, 2033, 2034, 2035, 2037, 2045, 2050, 2051, 2061, 2062, 2170
*Surface, type=ELEMENT, name=CP-83-interlocking-1
_CP-83-interlocking-1_S3, S3
*Elset, elset=_CP-84-interlocking-1_S3, internal, instance=interlocking-1
 2692, 2715, 2766, 2821, 2864, 3024, 3123, 3199, 3543, 3564, 3781, 3993, 4106, 4122, 4131, 4139
 4164, 4234, 4247, 4260, 4270, 4275, 4298
*Elset, elset=_CP-84-interlocking-1_S1, internal, instance=interlocking-1
 2765, 3219
*Elset, elset=_CP-84-interlocking-1_S4, internal, instance=interlocking-1
 3943, 4078
*Elset, elset=_CP-84-interlocking-1_S2, internal, instance=interlocking-1
 3973, 4215
*Surface, type=ELEMENT, name=CP-84-interlocking-1
_CP-84-interlocking-1_S3, S3
_CP-84-interlocking-1_S1, S1
_CP-84-interlocking-1_S4, S4
_CP-84-interlocking-1_S2, S2
*Elset, elset=_CP-85-interlocking-1_S3, internal, instance=interlocking-1
 2243, 2278, 2305, 2345, 2351, 2357, 2417, 2442, 2491, 2540, 2545, 2554, 2680, 2711, 2792, 2861
 3202, 3220, 3237, 3282, 3285, 3337, 3338, 3343, 3464, 3549, 3628, 3631, 3632, 3646, 3694, 3869
 3983, 3994, 4020, 4064, 4080, 4114, 4117, 4119, 4152, 4167, 4171, 4256, 4282, 4286
*Elset, elset=_CP-85-interlocking-1_S1, internal, instance=interlocking-1
 3786, 4194
*Elset, elset=_CP-85-interlocking-1_S4, internal, instance=interlocking-1
 4264,
*Surface, type=ELEMENT, name=CP-85-interlocking-1
_CP-85-interlocking-1_S3, S3
_CP-85-interlocking-1_S1, S1
_CP-85-interlocking-1_S4, S4
*Elset, elset=_CP-86-interlocking-1_S3, internal, instance=interlocking-1
   68,   84,  656,  707, 1277, 1318, 1348, 1353, 1402, 1405, 1488, 1489, 1610, 1654, 1710, 1713
 1750, 1779, 1783, 1875, 1881, 1925, 1937, 2030, 2059, 2069, 2070, 2080, 2091, 2098, 2105, 2114
 2130,
*Elset, elset=_CP-86-interlocking-1_S4, internal, instance=interlocking-1
  605, 1693, 1791, 2078, 2085
*Elset, elset=_CP-86-interlocking-1_S1, internal, instance=interlocking-1
  607, 1755, 1893, 2015, 2077
*Elset, elset=_CP-86-interlocking-1_S2, internal, instance=interlocking-1
 1130, 1664, 1765, 1891, 1908, 2081
*Surface, type=ELEMENT, name=CP-86-interlocking-1
_CP-86-interlocking-1_S3, S3
_CP-86-interlocking-1_S4, S4
_CP-86-interlocking-1_S2, S2
_CP-86-interlocking-1_S1, S1
*Elset, elset=_CP-87-interlocking-1_S3, internal, instance=interlocking-1
 3054, 3551, 3943, 3973, 3976, 4057, 4078, 4098, 4107, 4111, 4124, 4140, 4145, 4156, 4157, 4163
 4168, 4179, 4180, 4183, 4196, 4209, 4215, 4217, 4226, 4230, 4237
*Elset, elset=_CP-87-interlocking-1_S1, internal, instance=interlocking-1
 3087,
*Elset, elset=_CP-87-interlocking-1_S4, internal, instance=interlocking-1
 4066,
*Surface, type=ELEMENT, name=CP-87-interlocking-1
_CP-87-interlocking-1_S3, S3
_CP-87-interlocking-1_S1, S1
_CP-87-interlocking-1_S4, S4
*Elset, elset=_CP-88-interlocking-1_S3, internal, instance=interlocking-1
  9224,  9316,  9536, 10003, 10105, 10228, 10235, 10587, 10625, 10643, 10679, 10690, 10696, 10711, 10716, 10718
 10723, 10734, 10738, 10743, 10764, 10769, 10773, 10776
*Elset, elset=_CP-88-interlocking-1_S1, internal, instance=interlocking-1
 10537, 10752
*Elset, elset=_CP-88-interlocking-1_S2, internal, instance=interlocking-1
 10602, 10626, 10762
*Surface, type=ELEMENT, name=CP-88-interlocking-1
_CP-88-interlocking-1_S3, S3
_CP-88-interlocking-1_S1, S1
_CP-88-interlocking-1_S2, S2
*Elset, elset=_CP-89-interlocking-1_S3, internal, instance=interlocking-1
  8738,  8833,  8961,  8979,  8980,  9025,  9096,  9217,  9219,  9279,  9299,  9315,  9469,  9521,  9626,  9679
  9740,  9834,  9962, 10121, 10141, 10143, 10258, 10271, 10385, 10443, 10594, 10603, 10606, 10614, 10639, 10664
 10683, 10695, 10702, 10706, 10709, 10722, 10725, 10733, 10735, 10800, 10809, 10810, 10811
*Elset, elset=_CP-89-interlocking-1_S4, internal, instance=interlocking-1
  9610, 10665
*Elset, elset=_CP-89-interlocking-1_S1, internal, instance=interlocking-1
 10611,
*Elset, elset=_CP-89-interlocking-1_S2, internal, instance=interlocking-1
 10655,
*Surface, type=ELEMENT, name=CP-89-interlocking-1
_CP-89-interlocking-1_S3, S3
_CP-89-interlocking-1_S4, S4
_CP-89-interlocking-1_S2, S2
_CP-89-interlocking-1_S1, S1
*Elset, elset=_CP-90-interlocking-1_S3, internal, instance=interlocking-1
 2336, 2668, 2751, 2758, 3173, 3312, 3317, 3453, 3561, 3661, 3767, 3838, 3854, 3879, 3924, 3925
 3928, 4044, 4045, 4093, 4095, 4165, 4184, 4203, 4204, 4225, 4248, 4250, 4251, 4252, 4263, 4274
*Elset, elset=_CP-90-interlocking-1_S4, internal, instance=interlocking-1
 2342, 3506, 3806, 3863, 3967, 4052, 4198, 4214, 4232
*Elset, elset=_CP-90-interlocking-1_S1, internal, instance=interlocking-1
 3815, 4192, 4202, 4212
*Elset, elset=_CP-90-interlocking-1_S2, internal, instance=interlocking-1
 3832, 3851, 4236, 4273
*Surface, type=ELEMENT, name=CP-90-interlocking-1
_CP-90-interlocking-1_S3, S3
_CP-90-interlocking-1_S4, S4
_CP-90-interlocking-1_S2, S2
_CP-90-interlocking-1_S1, S1
*Elset, elset=_CP-91-interlocking-1_S3, internal, instance=interlocking-1
 4836, 4925, 5104, 5550, 5574, 5714, 5792, 5935, 5950, 5951, 5965, 5973, 5974, 6023, 6025, 6043
 6111, 6115, 6122, 6123, 6126, 6136, 6145, 6150, 6153, 6154, 6167, 6170, 6173, 6175, 6182, 6184
 6187, 6188, 6197, 6202, 6203, 6204, 6212, 6215, 6219, 6239, 6248, 6252, 6256, 6305, 6327
*Elset, elset=_CP-91-interlocking-1_S1, internal, instance=interlocking-1
 4927,
*Elset, elset=_CP-91-interlocking-1_S2, internal, instance=interlocking-1
 6162,
*Surface, type=ELEMENT, name=CP-91-interlocking-1
_CP-91-interlocking-1_S3, S3
_CP-91-interlocking-1_S1, S1
_CP-91-interlocking-1_S2, S2
*Elset, elset=_CP-92-interlocking-1_S2, internal, instance=interlocking-1
 2336, 2669, 3163, 3513, 3849, 3860, 3944, 4184, 4279
*Elset, elset=_CP-92-interlocking-1_S3, internal, instance=interlocking-1
 2626, 2674, 2852, 3270, 3319, 3375, 3538, 3562, 3563, 3576, 3602, 3663, 3791, 3839, 3852, 3856
 3864, 3865, 3871, 3872, 3890, 3891, 3897, 3902, 3910, 3940, 3951, 4113, 4185, 4242, 4245, 4246
 4290,
*Elset, elset=_CP-92-interlocking-1_S4, internal, instance=interlocking-1
 3643, 3767, 3857
*Elset, elset=_CP-92-interlocking-1_S1, internal, instance=interlocking-1
 3854, 3925, 4186, 4303
*Surface, type=ELEMENT, name=CP-92-interlocking-1
_CP-92-interlocking-1_S2, S2
_CP-92-interlocking-1_S3, S3
_CP-92-interlocking-1_S4, S4
_CP-92-interlocking-1_S1, S1
*Elset, elset=_CP-93-interlocking-1_S3, internal, instance=interlocking-1
 2464, 2719, 2782, 3254, 3530, 3533, 3675, 3696, 3700, 3703, 3705, 3707, 3711, 3719, 3744, 3834
 3912, 3923, 3935, 3958, 4007, 4013, 4300
*Elset, elset=_CP-93-interlocking-1_S1, internal, instance=interlocking-1
 2853, 3708, 3716, 3720, 3726, 3741
*Surface, type=ELEMENT, name=CP-93-interlocking-1
_CP-93-interlocking-1_S3, S3
_CP-93-interlocking-1_S1, S1
*Elset, elset=_CP-94-interlocking-1_S3, internal, instance=interlocking-1
 4890, 4892, 5302, 5682, 5704, 5820, 5841, 5875, 5878, 5880, 5895, 5896, 5898, 5904, 5908, 5910
 5915, 5916, 5919, 5920, 5934, 5940, 6164, 6235, 6449, 6486
*Elset, elset=_CP-94-interlocking-1_S1, internal, instance=interlocking-1
 4959,
*Elset, elset=_CP-94-interlocking-1_S2, internal, instance=interlocking-1
 5429, 5943
*Surface, type=ELEMENT, name=CP-94-interlocking-1
_CP-94-interlocking-1_S3, S3
_CP-94-interlocking-1_S1, S1
_CP-94-interlocking-1_S2, S2
*Elset, elset=_CP-95-interlocking-1_S3, internal, instance=interlocking-1
 4352, 4355, 4391, 4408, 4430, 4450, 4538, 4552, 4575, 4740, 4896, 4940, 4960, 4987, 5209, 5262
 5340, 5346, 5425, 5449, 5626, 5648, 5711, 5736, 5779, 5780, 5783, 5784, 5826, 5892, 5907, 5931
 5953, 6004, 6131, 6179, 6227, 6254, 6264, 6289, 6320, 6325, 6333, 6343, 6348, 6351, 6379, 6421
*Elset, elset=_CP-95-interlocking-1_S2, internal, instance=interlocking-1
 6349,
*Surface, type=ELEMENT, name=CP-95-interlocking-1
_CP-95-interlocking-1_S3, S3
_CP-95-interlocking-1_S2, S2
*Elset, elset=_CP-96-interlocking-1_S3, internal, instance=interlocking-1
 11814, 11851, 11906, 12200, 12203, 12210, 12212, 12266, 12427, 12448, 12482, 12492, 12583, 12584, 12587, 12720
 12797, 12811, 12828, 12831, 12841, 12871, 12872, 12877, 12890, 12901, 12912, 12915, 12921, 12922, 12923, 12926
 12930, 12949
*Elset, elset=_CP-96-interlocking-1_S2, internal, instance=interlocking-1
 12119, 12278, 12512, 12687, 12690, 12891, 12947
*Elset, elset=_CP-96-interlocking-1_S4, internal, instance=interlocking-1
 12297, 12483, 12506, 12607, 12895, 12905
*Elset, elset=_CP-96-interlocking-1_S1, internal, instance=interlocking-1
 12885, 12948
*Surface, type=ELEMENT, name=CP-96-interlocking-1
_CP-96-interlocking-1_S3, S3
_CP-96-interlocking-1_S2, S2
_CP-96-interlocking-1_S4, S4
_CP-96-interlocking-1_S1, S1
*Elset, elset=_CP-97-interlocking-1_S3, internal, instance=interlocking-1
 11965, 12403, 12608, 12620, 12704, 12715, 12722, 12737, 12748, 12751, 12762, 12769, 12775, 12776, 12787, 12798
 12800, 12804, 12816, 12825, 12842, 12848, 12850, 12854, 12856, 12858, 12869, 12959, 12964
*Surface, type=ELEMENT, name=CP-97-interlocking-1
_CP-97-interlocking-1_S3, S3
*Elset, elset=_CP-98-interlocking-1_S3, internal, instance=interlocking-1
 4668, 4871, 5019, 5623, 5708, 5717, 5772, 5838, 5854, 6228, 6281, 6339, 6374, 6380, 6387, 6395
 6423, 6426, 6437, 6445, 6463, 6465, 6469, 6472
*Elset, elset=_CP-98-interlocking-1_S1, internal, instance=interlocking-1
 5156,
*Elset, elset=_CP-98-interlocking-1_S4, internal, instance=interlocking-1
 5926,
*Elset, elset=_CP-98-interlocking-1_S2, internal, instance=interlocking-1
 6290, 6322, 6487
*Surface, type=ELEMENT, name=CP-98-interlocking-1
_CP-98-interlocking-1_S3, S3
_CP-98-interlocking-1_S1, S1
_CP-98-interlocking-1_S4, S4
_CP-98-interlocking-1_S2, S2
*Elset, elset=_CP-99-f1_SNEG, internal, instance=f1, generate
 553,  573,    1
*Surface, type=ELEMENT, name=CP-99-f1
_CP-99-f1_SNEG, SNEG
*Elset, elset=_CP-99-interlocking-1_S3, internal, instance=interlocking-1
  8713,  8839,  8905,  8938,  8990,  9036,  9211,  9350,  9445,  9868, 10025, 10029, 10038, 10127, 10139, 10182
 10184, 10185, 10253, 10254, 10284, 10292, 10293, 10294, 10296, 10303, 10306, 10313, 10316, 10330, 10331, 10350
 10352, 10370, 10444, 10454, 10552, 10574, 10575, 10577, 10578, 10580, 10589, 10601, 10612, 10616, 10628, 10630
 10631, 10635, 10654, 10704
*Elset, elset=_CP-99-interlocking-1_S1, internal, instance=interlocking-1
  9418, 10805
*Elset, elset=_CP-99-interlocking-1_S2, internal, instance=interlocking-1
 10289, 10334
*Elset, elset=_CP-99-interlocking-1_S4, internal, instance=interlocking-1
 10645, 10684
*Surface, type=ELEMENT, name=CP-99-interlocking-1
_CP-99-interlocking-1_S3, S3
_CP-99-interlocking-1_S1, S1
_CP-99-interlocking-1_S2, S2
_CP-99-interlocking-1_S4, S4
*Elset, elset=_CP-100-f1_SNEG, internal, instance=f1, generate
 574,  605,    1
*Surface, type=ELEMENT, name=CP-100-f1
_CP-100-f1_SNEG, SNEG
*Elset, elset=_CP-100-interlocking-1_S3, internal, instance=interlocking-1
 4382, 4446, 4455, 4495, 4517, 4935, 5026, 5205, 5257, 5258, 5405, 5417, 5484, 5545, 5557, 5609
 5722, 5787, 5809, 5852, 5870, 5881, 5890, 5939, 5947, 5952, 5955, 5957, 5959, 5970, 5978, 5985
 6005, 6010, 6018, 6020, 6120, 6185, 6236, 6243, 6259, 6269, 6284, 6285, 6304, 6309, 6310, 6311
 6328, 6431, 6461, 6489, 6493
*Elset, elset=_CP-100-interlocking-1_S1, internal, instance=interlocking-1
 5406, 6438
*Elset, elset=_CP-100-interlocking-1_S4, internal, instance=interlocking-1
 5968, 6287
*Elset, elset=_CP-100-interlocking-1_S2, internal, instance=interlocking-1
 5966,
*Surface, type=ELEMENT, name=CP-100-interlocking-1
_CP-100-interlocking-1_S3, S3
_CP-100-interlocking-1_S1, S1
_CP-100-interlocking-1_S4, S4
_CP-100-interlocking-1_S2, S2
*Elset, elset=_CP-101-f1_SNEG, internal, instance=f1, generate
 606,  646,    1
*Surface, type=ELEMENT, name=CP-101-f1
_CP-101-f1_SNEG, SNEG
*Elset, elset=_CP-101-interlocking-1_S3, internal, instance=interlocking-1
 6558, 6574, 6587, 6610, 6714, 6730, 6782, 6786, 6794, 6811, 6869, 6893, 6937, 7430, 7433, 7442
 7496, 7500, 7524, 7684, 7732, 7830, 7880, 7978, 7981, 8057, 8058, 8099, 8297, 8347, 8390, 8392
 8446, 8461, 8472, 8495, 8499, 8516, 8518, 8523, 8525, 8562, 8595, 8607, 8624
*Elset, elset=_CP-101-interlocking-1_S4, internal, instance=interlocking-1
 6972, 6974, 8438
*Elset, elset=_CP-101-interlocking-1_S1, internal, instance=interlocking-1
 8476,
*Surface, type=ELEMENT, name=CP-101-interlocking-1
_CP-101-interlocking-1_S3, S3
_CP-101-interlocking-1_S4, S4
_CP-101-interlocking-1_S1, S1
*Elset, elset=_CP-102-f1_SNEG, internal, instance=f1, generate
 906,  937,    1
*Surface, type=ELEMENT, name=CP-102-f1
_CP-102-f1_SNEG, SNEG
*Elset, elset=_CP-102-interlocking-1_S4, internal, instance=interlocking-1
  8868, 10526, 10742, 10750, 10758
*Elset, elset=_CP-102-interlocking-1_S3, internal, instance=interlocking-1
  8944,  9183,  9654,  9812,  9814, 10065, 10068, 10205, 10217, 10395, 10423, 10425, 10451, 10488, 10512, 10513
 10515, 10531, 10538, 10546, 10627, 10656, 10657, 10661, 10672, 10741, 10745, 10771, 10781, 10783, 10788, 10789
 10806, 10807
*Elset, elset=_CP-102-interlocking-1_S1, internal, instance=interlocking-1
  9334, 10304, 10767
*Elset, elset=_CP-102-interlocking-1_S2, internal, instance=interlocking-1
 10310, 10315, 10407, 10516, 10532, 10640, 10748
*Surface, type=ELEMENT, name=CP-102-interlocking-1
_CP-102-interlocking-1_S4, S4
_CP-102-interlocking-1_S3, S3
_CP-102-interlocking-1_S2, S2
_CP-102-interlocking-1_S1, S1
*Elset, elset=_CP-103-f1_SNEG, internal, instance=f1, generate
 938,  957,    1
*Surface, type=ELEMENT, name=CP-103-f1
_CP-103-f1_SNEG, SNEG
*Elset, elset=_CP-103-interlocking-1_S3, internal, instance=interlocking-1
  9093, 10247, 10523, 10537, 10542, 10543, 10554, 10569, 10584, 10596, 10602, 10607, 10618, 10622, 10626, 10652
 10674, 10676, 10678, 10680, 10688, 10719, 10730, 10731, 10732, 10736, 10762, 10763
*Elset, elset=_CP-103-interlocking-1_S4, internal, instance=interlocking-1
 10703,
*Surface, type=ELEMENT, name=CP-103-interlocking-1
_CP-103-interlocking-1_S3, S3
_CP-103-interlocking-1_S4, S4
*Elset, elset=_CP-104-f1_SNEG, internal, instance=f1, generate
 1360,  1378,     1
*Surface, type=ELEMENT, name=CP-104-f1
_CP-104-f1_SNEG, SNEG
*Elset, elset=_CP-104-interlocking-1_S4, internal, instance=interlocking-1
 7001, 7520, 8024, 8358, 8614
*Elset, elset=_CP-104-interlocking-1_S3, internal, instance=interlocking-1
 7458, 7820, 7999, 8107, 8131, 8211, 8306, 8359, 8402, 8407, 8469, 8475, 8505, 8526, 8528, 8539
 8584, 8588, 8605, 8608
*Elset, elset=_CP-104-interlocking-1_S2, internal, instance=interlocking-1
 8422, 8498, 8578
*Elset, elset=_CP-104-interlocking-1_S1, internal, instance=interlocking-1
 8452,
*Surface, type=ELEMENT, name=CP-104-interlocking-1
_CP-104-interlocking-1_S4, S4
_CP-104-interlocking-1_S3, S3
_CP-104-interlocking-1_S2, S2
_CP-104-interlocking-1_S1, S1
*Elset, elset=_CP-105-f1_SNEG, internal, instance=f1, generate
 1379,  1410,     1
*Surface, type=ELEMENT, name=CP-105-f1
_CP-105-f1_SNEG, SNEG
*Elset, elset=_CP-105-interlocking-1_S3, internal, instance=interlocking-1
 13479, 13507, 13629, 14140, 14159, 14406, 14407, 14408, 14413, 14430, 14447, 14449, 14452, 14455, 14464, 14465
 14470, 14478, 14584, 14588, 14590, 14701, 14782
*Elset, elset=_CP-105-interlocking-1_S1, internal, instance=interlocking-1
 14453, 14467, 14471, 14491
*Elset, elset=_CP-105-interlocking-1_S2, internal, instance=interlocking-1
 14713,
*Elset, elset=_CP-105-interlocking-1_S4, internal, instance=interlocking-1
 15034,
*Surface, type=ELEMENT, name=CP-105-interlocking-1
_CP-105-interlocking-1_S3, S3
_CP-105-interlocking-1_S1, S1
_CP-105-interlocking-1_S2, S2
_CP-105-interlocking-1_S4, S4
*Elset, elset=_CP-106-f1_SNEG, internal, instance=f1, generate
 2107,  2138,     1
*Surface, type=ELEMENT, name=CP-106-f1
_CP-106-f1_SNEG, SNEG
*Elset, elset=_CP-106-interlocking-1_S3, internal, instance=interlocking-1
 7025, 7028, 7259, 7278, 7314, 7771, 7909, 7957, 7980, 7987, 8004, 8005, 8006, 8009, 8014, 8020
 8028, 8029, 8031, 8034, 8054, 8062, 8066, 8280, 8311, 8328, 8626
*Elset, elset=_CP-106-interlocking-1_S2, internal, instance=interlocking-1
 8017, 8035
*Surface, type=ELEMENT, name=CP-106-interlocking-1
_CP-106-interlocking-1_S3, S3
_CP-106-interlocking-1_S2, S2
*Elset, elset=_CP-107-f1_SNEG, internal, instance=f1, generate
 2139,  2158,     1
*Surface, type=ELEMENT, name=CP-107-f1
_CP-107-f1_SNEG, SNEG
*Elset, elset=_CP-107-interlocking-1_S3, internal, instance=interlocking-1
 6946, 7177, 7282, 7869, 7970, 8037, 8069, 8072, 8079, 8080, 8141, 8151, 8152, 8187, 8239, 8243
 8265, 8274, 8275, 8276, 8283, 8287, 8292, 8293, 8294, 8300, 8303, 8304, 8309, 8310, 8315, 8316
 8321, 8322, 8332, 8336, 8337, 8339, 8344, 8353, 8571, 8618, 8622
*Elset, elset=_CP-107-interlocking-1_S4, internal, instance=interlocking-1
 7117, 8251
*Elset, elset=_CP-107-interlocking-1_S2, internal, instance=interlocking-1
 7317, 8048, 8153
*Elset, elset=_CP-107-interlocking-1_S1, internal, instance=interlocking-1
 7601,
*Surface, type=ELEMENT, name=CP-107-interlocking-1
_CP-107-interlocking-1_S3, S3
_CP-107-interlocking-1_S4, S4
_CP-107-interlocking-1_S2, S2
_CP-107-interlocking-1_S1, S1
*Elset, elset=_CP-108-f1_SNEG, internal, instance=f1, generate
 2403,  2434,     1
*Surface, type=ELEMENT, name=CP-108-f1
_CP-108-f1_SNEG, SNEG
*Elset, elset=_CP-108-interlocking-1_S3, internal, instance=interlocking-1
 13382, 13432, 13951, 14018, 14037, 14306, 14308, 14316, 14321, 14322, 14396, 14417, 14553, 14601, 14619, 14620
 14624, 14631, 14649, 14670, 14673, 14682, 14702, 14832, 14878, 14988, 15006, 15018, 15035, 15057, 15069
*Elset, elset=_CP-108-interlocking-1_S4, internal, instance=interlocking-1
 14292, 14606, 14666, 14680, 14973, 15078
*Elset, elset=_CP-108-interlocking-1_S2, internal, instance=interlocking-1
 14599, 14605, 14610, 14616, 14746, 15011, 15016, 15038, 15051
*Elset, elset=_CP-108-interlocking-1_S1, internal, instance=interlocking-1
 14604, 14612, 14627
*Surface, type=ELEMENT, name=CP-108-interlocking-1
_CP-108-interlocking-1_S3, S3
_CP-108-interlocking-1_S4, S4
_CP-108-interlocking-1_S2, S2
_CP-108-interlocking-1_S1, S1
*Elset, elset=_CP-109-f1_SNEG, internal, instance=f1, generate
 2435,  2454,     1
*Surface, type=ELEMENT, name=CP-109-f1
_CP-109-f1_SNEG, SNEG
*Elset, elset=_CP-109-interlocking-1_S3, internal, instance=interlocking-1
 6805, 6840, 6929, 6935, 7192, 7217, 7318, 7352, 7373, 7735, 7738, 7795, 7916, 7976, 8011, 8012
 8030, 8039, 8043, 8050, 8055, 8056, 8063, 8068, 8071, 8086, 8087, 8088, 8104, 8112, 8139, 8140
 8233, 8355, 8364, 8374, 8383, 8386, 8387, 8397, 8400, 8405, 8411, 8412, 8414, 8418, 8421, 8424
 8434, 8447, 8454, 8517, 8527, 8535, 8565
*Elset, elset=_CP-109-interlocking-1_S4, internal, instance=interlocking-1
 6670, 6813
*Elset, elset=_CP-109-interlocking-1_S2, internal, instance=interlocking-1
 8145,
*Surface, type=ELEMENT, name=CP-109-interlocking-1
_CP-109-interlocking-1_S3, S3
_CP-109-interlocking-1_S4, S4
_CP-109-interlocking-1_S2, S2
*Elset, elset=_CP-110-f1_SNEG, internal, instance=f1, generate
 2958,  2978,     1
*Surface, type=ELEMENT, name=CP-110-f1
_CP-110-f1_SNEG, SNEG
*Elset, elset=_CP-110-interlocking-1_S3, internal, instance=interlocking-1
 15281, 15283, 15401, 15484, 15732, 15859, 15965, 15970, 15971, 15992, 16057, 16062, 16142, 16316, 16478, 16536
 16575, 16594, 16597, 16618, 16640, 16648, 16650, 16652, 16654, 16656, 16661, 16666, 16676, 16678, 16682, 16687
 16708, 16721, 16727, 16860, 16883, 16927, 16935, 16939, 16959, 16985, 16989, 16999, 17001, 17008, 17012, 17013
 17015, 17027, 17034, 17059, 17189
*Elset, elset=_CP-110-interlocking-1_S1, internal, instance=interlocking-1
 16401, 16710
*Elset, elset=_CP-110-interlocking-1_S2, internal, instance=interlocking-1
 16674, 16972
*Elset, elset=_CP-110-interlocking-1_S4, internal, instance=interlocking-1
 17014,
*Surface, type=ELEMENT, name=CP-110-interlocking-1
_CP-110-interlocking-1_S3, S3
_CP-110-interlocking-1_S1, S1
_CP-110-interlocking-1_S2, S2
_CP-110-interlocking-1_S4, S4
*Elset, elset=_CP-111-f1_SNEG, internal, instance=f1, generate
 2979,  3010,     1
*Surface, type=ELEMENT, name=CP-111-f1
_CP-111-f1_SNEG, SNEG
*Elset, elset=_CP-111-interlocking-1_S3, internal, instance=interlocking-1
 16295, 16296, 16331, 16533, 16567, 16586, 16637, 16642, 16645, 16659, 16660, 16728, 16775, 16819, 16839, 16844
 16846, 16851, 16855, 16859, 16862, 16863, 16865, 16866, 16867, 16869, 16871, 16875, 16896, 16900, 16903, 16904
 16907, 16910, 16918, 16919, 16944, 16950, 16953, 16960, 16974, 16994, 17002, 17021, 17024, 17053, 17221
*Elset, elset=_CP-111-interlocking-1_S2, internal, instance=interlocking-1
 16513,
*Elset, elset=_CP-111-interlocking-1_S4, internal, instance=interlocking-1
 16653,
*Surface, type=ELEMENT, name=CP-111-interlocking-1
_CP-111-interlocking-1_S3, S3
_CP-111-interlocking-1_S2, S2
_CP-111-interlocking-1_S4, S4
*Elset, elset=_CP-112-f1_SNEG, internal, instance=f1, generate
 3011,  3052,     1
*Surface, type=ELEMENT, name=CP-112-f1
_CP-112-f1_SNEG, SNEG
*Elset, elset=_CP-112-interlocking-1_S2, internal, instance=interlocking-1
  8652,  9121, 10392, 10399, 10401, 10468, 10746
*Elset, elset=_CP-112-interlocking-1_S3, internal, instance=interlocking-1
  8661,  9348,  9690,  9709,  9743,  9754,  9764, 10014, 10018, 10031, 10047, 10053, 10061, 10069, 10136, 10324
 10394, 10400, 10410, 10416, 10418, 10419, 10429, 10431, 10433, 10567, 10668, 10669, 10739, 10796
*Elset, elset=_CP-112-interlocking-1_S4, internal, instance=interlocking-1
  8684,  9182,  9700, 10205, 10402, 10471
*Elset, elset=_CP-112-interlocking-1_S1, internal, instance=interlocking-1
  9150,  9281, 10395, 10409, 10741, 10807
*Surface, type=ELEMENT, name=CP-112-interlocking-1
_CP-112-interlocking-1_S2, S2
_CP-112-interlocking-1_S3, S3
_CP-112-interlocking-1_S4, S4
_CP-112-interlocking-1_S1, S1
*Elset, elset=_CP-113-f1_SNEG, internal, instance=f1, generate
 3255,  3273,     1
*Surface, type=ELEMENT, name=CP-113-f1
_CP-113-f1_SNEG, SNEG
*Elset, elset=_CP-113-interlocking-1_S3, internal, instance=interlocking-1
 15136, 15633, 16118, 16155, 16156, 16275, 16280, 16545, 16548, 16589, 16591, 16608, 16609, 16610, 16616, 16624
 16625, 16626, 16627, 16629, 16630, 16636, 16832, 16840, 16874, 16936
*Elset, elset=_CP-113-interlocking-1_S1, internal, instance=interlocking-1
 15697,
*Elset, elset=_CP-113-interlocking-1_S2, internal, instance=interlocking-1
 16620, 16641
*Surface, type=ELEMENT, name=CP-113-interlocking-1
_CP-113-interlocking-1_S3, S3
_CP-113-interlocking-1_S1, S1
_CP-113-interlocking-1_S2, S2
*Elset, elset=_CP-114-f1_SNEG, internal, instance=f1, generate
 3274,  3305,     1
*Surface, type=ELEMENT, name=CP-114-f1
_CP-114-f1_SNEG, SNEG
*Elset, elset=_CP-114-interlocking-1_S1, internal, instance=interlocking-1
  9658, 10223, 10234, 10269
*Elset, elset=_CP-114-interlocking-1_S3, internal, instance=interlocking-1
  9664,  9665,  9770,  9895, 10050, 10092, 10157, 10160, 10177, 10179, 10180, 10193, 10200, 10209, 10275, 10276
 10317, 10362, 10437, 10464, 10487, 10514, 10579
*Elset, elset=_CP-114-interlocking-1_S2, internal, instance=interlocking-1
 10215, 10439
*Surface, type=ELEMENT, name=CP-114-interlocking-1
_CP-114-interlocking-1_S1, S1
_CP-114-interlocking-1_S3, S3
_CP-114-interlocking-1_S2, S2
*Elset, elset=_CP-115-f1_SNEG, internal, instance=f1, generate
 3708,  3739,     1
*Surface, type=ELEMENT, name=CP-115-f1
_CP-115-f1_SNEG, SNEG
*Elset, elset=_CP-115-interlocking-1_S3, internal, instance=interlocking-1
  8955,  8977,  9359,  9441,  9774,  9925, 10107, 10111, 10153, 10189, 10191, 10212, 10222, 10223, 10224, 10226
 10233, 10234, 10245, 10249, 10251, 10252, 10260, 10295, 10300, 10439, 10536
*Elset, elset=_CP-115-interlocking-1_S2, internal, instance=interlocking-1
  9658, 10269
*Surface, type=ELEMENT, name=CP-115-interlocking-1
_CP-115-interlocking-1_S3, S3
_CP-115-interlocking-1_S2, S2
*Elset, elset=_CP-116-f1_SNEG, internal, instance=f1, generate
 3740,  3759,     1
*Surface, type=ELEMENT, name=CP-116-f1
_CP-116-f1_SNEG, SNEG
*Elset, elset=_CP-116-interlocking-1_S3, internal, instance=interlocking-1
 10934, 11375, 11431, 11808, 12080, 12093, 12306, 12318, 12331, 12339, 12343, 12344, 12346, 12354, 12381, 12404
 12503, 12558, 12606, 12615, 12654, 12674, 12940
*Elset, elset=_CP-116-interlocking-1_S1, internal, instance=interlocking-1
 12348, 12352, 12356, 12383
*Elset, elset=_CP-116-interlocking-1_S2, internal, instance=interlocking-1
 12366, 12938
*Surface, type=ELEMENT, name=CP-116-interlocking-1
_CP-116-interlocking-1_S3, S3
_CP-116-interlocking-1_S1, S1
_CP-116-interlocking-1_S2, S2
*Elset, elset=_CP-117-f1_SNEG, internal, instance=f1, generate
 4003,  4034,     1
*Surface, type=ELEMENT, name=CP-117-f1
_CP-117-f1_SNEG, SNEG
*Elset, elset=_CP-117-interlocking-1_S3, internal, instance=interlocking-1
  8724,  8942,  9100,  9223,  9228,  9248,  9498,  9574, 10097, 10102, 10261, 10265, 10277, 10278, 10291, 10302
 10305, 10345, 10348, 10349, 10371, 10436, 10456, 10457, 10459, 10469, 10470, 10472, 10479, 10481, 10482, 10484
 10486, 10493, 10495, 10503, 10507, 10509, 10521, 10535, 10539, 10547, 10551, 10559, 10572, 10586
*Elset, elset=_CP-117-interlocking-1_S1, internal, instance=interlocking-1
 9370,
*Elset, elset=_CP-117-interlocking-1_S2, internal, instance=interlocking-1
  9447, 10498
*Surface, type=ELEMENT, name=CP-117-interlocking-1
_CP-117-interlocking-1_S3, S3
_CP-117-interlocking-1_S1, S1
_CP-117-interlocking-1_S2, S2
*Elset, elset=_CP-118-f1_SNEG, internal, instance=f1, generate
 4035,  4054,     1
*Surface, type=ELEMENT, name=CP-118-f1
_CP-118-f1_SNEG, SNEG
*Elset, elset=_CP-118-interlocking-1_S3, internal, instance=interlocking-1
 10867, 11441, 11488, 11704, 11735, 11868, 11870, 11953, 11955, 12041, 12121, 12125, 12205, 12251, 12477, 12484
 12497, 12498, 12509, 12514, 12515, 12533, 12540, 12548, 12549, 12561, 12585, 12610, 12633, 12658, 12755, 12766
*Elset, elset=_CP-118-interlocking-1_S4, internal, instance=interlocking-1
 11634, 12628, 12926
*Elset, elset=_CP-118-interlocking-1_S2, internal, instance=interlocking-1
 12455, 12505, 12510, 12511, 12518, 12530, 12601, 12853, 12945
*Elset, elset=_CP-118-interlocking-1_S1, internal, instance=interlocking-1
 12482, 12520, 12539, 12583, 12877
*Surface, type=ELEMENT, name=CP-118-interlocking-1
_CP-118-interlocking-1_S3, S3
_CP-118-interlocking-1_S4, S4
_CP-118-interlocking-1_S2, S2
_CP-118-interlocking-1_S1, S1
*Elset, elset=_CP-119-f1_SNEG, internal, instance=f1, generate
 4212,  4251,     1
*Surface, type=ELEMENT, name=CP-119-f1
_CP-119-f1_SNEG, SNEG
*Elset, elset=_CP-119-interlocking-1_S4, internal, instance=interlocking-1
 17953, 18728, 18777, 18808
*Elset, elset=_CP-119-interlocking-1_S3, internal, instance=interlocking-1
 17954, 18040, 18152, 18717, 18729, 18730, 18732, 18733, 18753, 18759, 18760, 18770, 18772, 18773, 18775, 18788
 18804, 18843, 18868, 18869, 18967, 19031, 19047, 19093
*Elset, elset=_CP-119-interlocking-1_S1, internal, instance=interlocking-1
 18807,
*Surface, type=ELEMENT, name=CP-119-interlocking-1
_CP-119-interlocking-1_S4, S4
_CP-119-interlocking-1_S3, S3
_CP-119-interlocking-1_S1, S1
*Elset, elset=_CP-120-f1_SNEG, internal, instance=f1, generate
 4613,  4651,     1
*Surface, type=ELEMENT, name=CP-120-f1
_CP-120-f1_SNEG, SNEG
*Elset, elset=_CP-120-interlocking-1_S3, internal, instance=interlocking-1
 11374, 11595, 11655, 12284, 12302, 12326, 12330, 12349, 12350, 12351, 12352, 12356, 12359, 12360, 12364, 12366
 12369, 12370, 12372, 12376, 12378, 12411, 12428, 12566, 12602, 12667
*Elset, elset=_CP-120-interlocking-1_S2, internal, instance=interlocking-1
 12348, 12383
*Elset, elset=_CP-120-interlocking-1_S4, internal, instance=interlocking-1
 12373,
*Surface, type=ELEMENT, name=CP-120-interlocking-1
_CP-120-interlocking-1_S3, S3
_CP-120-interlocking-1_S2, S2
_CP-120-interlocking-1_S4, S4
*Elset, elset=_CP-121-f1_SNEG, internal, instance=f1, generate
 4857,  4877,     1
*Surface, type=ELEMENT, name=CP-121-f1
_CP-121-f1_SNEG, SNEG
*Elset, elset=_CP-121-interlocking-1_S4, internal, instance=interlocking-1
 11158, 12590, 12702
*Elset, elset=_CP-121-interlocking-1_S3, internal, instance=interlocking-1
 11274, 11465, 11504, 11774, 11805, 11838, 11884, 12216, 12217, 12385, 12418, 12420, 12421, 12432, 12478, 12488
 12527, 12567, 12568, 12592, 12603, 12604, 12613, 12614, 12617, 12621, 12623, 12630, 12643, 12646, 12650, 12652
 12665, 12668, 12669, 12682, 12686, 12740, 12753, 12792, 12957, 12962
*Elset, elset=_CP-121-interlocking-1_S1, internal, instance=interlocking-1
 11329, 12576
*Elset, elset=_CP-121-interlocking-1_S2, internal, instance=interlocking-1
 11804, 12401
*Surface, type=ELEMENT, name=CP-121-interlocking-1
_CP-121-interlocking-1_S4, S4
_CP-121-interlocking-1_S3, S3
_CP-121-interlocking-1_S2, S2
_CP-121-interlocking-1_S1, S1
*Elset, elset=_CP-122-f1_SNEG, internal, instance=f1, generate
 4878,  4909,     1
*Surface, type=ELEMENT, name=CP-122-f1
_CP-122-f1_SNEG, SNEG
*Elset, elset=_CP-122-interlocking-1_S3, internal, instance=interlocking-1
 17619, 17650, 17749, 17872, 18336, 18537, 18590, 18597, 18635, 18674, 18697, 18700, 18744, 18818, 18923, 18946
 18950, 18952, 18959, 18974, 18988, 18989, 18995, 18996, 19018, 19020, 19028, 19136, 19231, 19242, 19324
*Elset, elset=_CP-122-interlocking-1_S4, internal, instance=interlocking-1
 17835, 18351, 18945, 18993, 19235, 19378
*Elset, elset=_CP-122-interlocking-1_S2, internal, instance=interlocking-1
 17836, 18323, 18865, 18920, 18953, 19082, 19113
*Elset, elset=_CP-122-interlocking-1_S1, internal, instance=interlocking-1
 17976, 18514, 18927, 18942, 19280
*Surface, type=ELEMENT, name=CP-122-interlocking-1
_CP-122-interlocking-1_S3, S3
_CP-122-interlocking-1_S4, S4
_CP-122-interlocking-1_S2, S2
_CP-122-interlocking-1_S1, S1
*Elset, elset=_CP-123-f1_SNEG, internal, instance=f1, generate
 5208,  5239,     1
*Surface, type=ELEMENT, name=CP-123-f1
_CP-123-f1_SNEG, SNEG
*Elset, elset=_CP-123-interlocking-1_S3, internal, instance=interlocking-1
 13862, 14343, 14763, 14766, 14853, 14861, 14864, 14866, 14885, 14898, 14908, 14913, 14919, 14920, 14921, 14922
 14923, 14925, 14931, 14942, 14944, 14971, 14976, 14992, 14993, 14995, 15003, 15004
*Elset, elset=_CP-123-interlocking-1_S4, internal, instance=interlocking-1
 14888,
*Surface, type=ELEMENT, name=CP-123-interlocking-1
_CP-123-interlocking-1_S3, S3
_CP-123-interlocking-1_S4, S4
*Elset, elset=_CP-124-f1_SNEG, internal, instance=f1, generate
 5240,  5259,     1
*Surface, type=ELEMENT, name=CP-124-f1
_CP-124-f1_SNEG, SNEG
*Elset, elset=_CP-124-interlocking-1_S3, internal, instance=interlocking-1
 15108, 15640, 16020, 16039, 16069, 16344, 16396, 16810, 17068, 17070, 17072, 17121, 17132, 17140, 17157, 17160
 17165, 17167, 17171, 17198, 17199, 17204, 17206, 17224
*Elset, elset=_CP-124-interlocking-1_S1, internal, instance=interlocking-1
 16423, 17064
*Elset, elset=_CP-124-interlocking-1_S4, internal, instance=interlocking-1
 16961,
*Elset, elset=_CP-124-interlocking-1_S2, internal, instance=interlocking-1
 16975, 17232
*Surface, type=ELEMENT, name=CP-124-interlocking-1
_CP-124-interlocking-1_S3, S3
_CP-124-interlocking-1_S1, S1
_CP-124-interlocking-1_S4, S4
_CP-124-interlocking-1_S2, S2
*Elset, elset=_CP-125-f1_SNEG, internal, instance=f1, generate
 5416,  5456,     1
*Surface, type=ELEMENT, name=CP-125-f1
_CP-125-f1_SNEG, SNEG
*Elset, elset=_CP-125-interlocking-1_S3, internal, instance=interlocking-1
 15113, 15117, 15134, 15297, 15327, 15384, 15394, 15424, 15432, 15457, 15518, 15527, 15580, 15636, 15733, 15905
 15982, 16006, 16032, 16272, 16392, 16407, 16413, 16441, 16465, 16483, 16484, 16499, 16538, 16541, 16668, 16803
 16841, 16957, 16965, 16969, 16978, 17020, 17023, 17030, 17056, 17065, 17078, 17085, 17155, 17161, 17179, 17187
*Elset, elset=_CP-125-interlocking-1_S2, internal, instance=interlocking-1
 17093,
*Surface, type=ELEMENT, name=CP-125-interlocking-1
_CP-125-interlocking-1_S3, S3
_CP-125-interlocking-1_S2, S2
*Elset, elset=_CP-126-f1_SNEG, internal, instance=f1, generate
 5661,  5681,     1
*Surface, type=ELEMENT, name=CP-126-f1
_CP-126-f1_SNEG, SNEG
*Elset, elset=_CP-126-interlocking-1_S3, internal, instance=interlocking-1
 13457, 13551, 14125, 14269, 14271, 14286, 14319, 14345, 14358, 14359, 14562, 14569, 14604, 14616, 14652, 14663
 14680, 14681, 14684, 14926, 14927, 14930, 14937, 14945, 14953, 14956, 14962, 14973, 14978, 14985, 14990, 15011
 15019, 15021
*Elset, elset=_CP-126-interlocking-1_S4, internal, instance=interlocking-1
 14360, 14602, 14735, 14761, 14835, 14951, 14959
*Elset, elset=_CP-126-interlocking-1_S2, internal, instance=interlocking-1
 14537, 14615, 14623, 14828, 14831, 14848, 14949
*Elset, elset=_CP-126-interlocking-1_S1, internal, instance=interlocking-1
 14715,
*Surface, type=ELEMENT, name=CP-126-interlocking-1
_CP-126-interlocking-1_S3, S3
_CP-126-interlocking-1_S4, S4
_CP-126-interlocking-1_S2, S2
_CP-126-interlocking-1_S1, S1
*Elset, elset=_CP-127-f1_SNEG, internal, instance=f1, generate
 5682,  5713,     1
*Surface, type=ELEMENT, name=CP-127-f1
_CP-127-f1_SNEG, SNEG
*Elset, elset=_CP-127-interlocking-1_S3, internal, instance=interlocking-1
 18031, 18056, 18087, 18192, 18329, 18567, 18658, 18666, 18711, 18766, 18790, 18796, 18801, 18812, 18828, 18829
 18832, 18836, 18844, 18845, 18852, 18867, 18901, 18913, 18976, 19004, 19007, 19012, 19016, 19024, 19025, 19033
 19037, 19043, 19046, 19050, 19053, 19062, 19066, 19068, 19069, 19098, 19099, 19100, 19125, 19126, 19150, 19153
 19332,
*Surface, type=ELEMENT, name=CP-127-interlocking-1
_CP-127-interlocking-1_S3, S3
*Elset, elset=_CP-128-interlocking-1_S3, internal, instance=interlocking-1
 15595, 15709, 15768, 15853, 16145, 16178, 16223, 16372, 16449, 16452, 16455, 16459, 16494, 16518, 16595, 16709
 16744, 16752, 16771, 16784, 16798, 16809, 16815, 16816, 16828, 16853, 16921, 17101, 17186, 17211, 17229, 17233
*Elset, elset=_CP-128-interlocking-1_S1, internal, instance=interlocking-1
 15774, 16750, 16758, 17010
*Elset, elset=_CP-128-interlocking-1_S4, internal, instance=interlocking-1
 15887, 16731, 16738, 16760, 16836
*Elset, elset=_CP-128-interlocking-1_S2, internal, instance=interlocking-1
 15993, 16480, 16753, 16754, 16762, 16769, 16802, 17178
*Surface, type=ELEMENT, name=CP-128-interlocking-1
_CP-128-interlocking-1_S3, S3
_CP-128-interlocking-1_S1, S1
_CP-128-interlocking-1_S4, S4
_CP-128-interlocking-1_S2, S2
*Elset, elset=_CP-129-interlocking-1_S3, internal, instance=interlocking-1
 15614, 15742, 16277, 16293, 16309, 16493, 16495, 16555, 16557, 16565, 16569, 16570, 16580, 16604, 16607, 16613
 16614, 16617, 16623, 16671, 16688, 16691, 16870, 17183
*Elset, elset=_CP-129-interlocking-1_S2, internal, instance=interlocking-1
 16435, 16589
*Elset, elset=_CP-129-interlocking-1_S1, internal, instance=interlocking-1
 16616, 16641
*Elset, elset=_CP-129-interlocking-1_S4, internal, instance=interlocking-1
 16624,
*Surface, type=ELEMENT, name=CP-129-interlocking-1
_CP-129-interlocking-1_S3, S3
_CP-129-interlocking-1_S2, S2
_CP-129-interlocking-1_S4, S4
_CP-129-interlocking-1_S1, S1
*Elset, elset=_CP-130-interlocking-1_S3, internal, instance=interlocking-1
 17386, 17786, 17788, 18341, 18342, 18539, 18712, 18728, 18756, 18758, 18777, 18779, 18784, 18785, 18789, 18791
 18792, 18808, 18809, 18811, 18817, 18841, 18922, 19017, 19029, 19054, 19131
*Elset, elset=_CP-130-interlocking-1_S1, internal, instance=interlocking-1
 18781,
*Elset, elset=_CP-130-interlocking-1_S2, internal, instance=interlocking-1
 18807,
*Surface, type=ELEMENT, name=CP-130-interlocking-1
_CP-130-interlocking-1_S3, S3
_CP-130-interlocking-1_S1, S1
_CP-130-interlocking-1_S2, S2
*Elset, elset=_Surf-1_S1, internal, instance=interlocking-1
  6813,  7921,  8388,  8528,  8565, 10157, 10226, 10580, 10622, 10625, 16555, 16620, 16674
*Elset, elset=_Surf-1_S4, internal, instance=interlocking-1
  6959,  7188,  8211,  8372,  8377,  8459,  9016,  9042,  9200,  9359,  9658, 10200, 10215, 10260, 10306, 10362
 10554, 10574, 10696, 10729, 15274, 16306, 16545, 16565, 16570, 16630, 16640, 16935
*Elset, elset=_Surf-1_S3, internal, instance=interlocking-1
  6680,  6789,  7003,  7123,  7150,  7287,  7499,  7515,  7522,  7754,  7796,  7798,  7917,  7927,  7935,  7944
  7949,  8100,  8108,  8264,  8301,  8369,  8382,  8394,  8396,  8413,  8429,  8443,  8449,  8451,  8460,  8465
  8471,  8494,  8496,  8501,  8507,  8510,  8512,  8521,  8556,  8835,  8836,  8843,  8901,  8904,  8907,  9046
  9055,  9175,  9208,  9233,  9250,  9292,  9390,  9401,  9436,  9446,  9635,  9663,  9686,  9698,  9867,  9944
  9959,  9960, 10000, 10024, 10058, 10112, 10119, 10133, 10145, 10151, 10155, 10159, 10161, 10166, 10170, 10171
 10174, 10175, 10176, 10190, 10201, 10204, 10237, 10238, 10255, 10257, 10262, 10290, 10312, 10318, 10319, 10323
 10328, 10340, 10344, 10359, 10361, 10363, 10364, 10367, 10448, 10475, 10501, 10564, 10581, 10600, 10609, 10613
 10615, 10617, 10632, 10677, 10693, 10699, 10715, 10792, 10799, 15110, 15152, 15224, 15348, 15440, 15524, 15612
 15613, 15615, 15629, 15667, 15707, 16137, 16187, 16190, 16310, 16505, 16511, 16553, 16556, 16558, 16559, 16560
 16561, 16562, 16563, 16572, 16593, 16632, 16643, 16651, 16655, 16657, 16716, 16735, 16861, 16895, 16915, 16937
 16954, 16992, 17188
*Elset, elset=_Surf-1_S2, internal, instance=interlocking-1
  7936,  7999,  8383,  8397,  8444,  8529,  9939, 10153, 10164, 10167, 10266, 10292, 10293, 10296, 10330, 10332
 10618, 10629, 10684, 10734, 10736, 10743, 10805, 15742, 16548, 16568, 16654, 16708
*Surface, type=ELEMENT, name=Surf-1
_Surf-1_S1, S1
_Surf-1_S4, S4
_Surf-1_S2, S2
_Surf-1_S3, S3
*Rigid Body, ref node=f1.frame-RefPt_, elset=f1.frame
*End Assembly
*Amplitude, name=Amp-1, time=TOTAL TIME, definition=EQUALLY SPACED, fixed interval=1.
             0.,              1.
** 
** MATERIALS
** 
*Material, name=high-strength
*Damping, beta=0.001
*Density
 1e+06,
*Elastic
 2e+09, 0.3
** 
** INTERACTION PROPERTIES
** 
*Surface Interaction, name=IntProp-1
*Friction
0.,
*Surface Behavior, pressure-overclosure=HARD
** ----------------------------------------------------------------
** 
** STEP: Step-1
** 
*Step, name=Step-1, nlgeom=YES
*Dynamic, Explicit
, 30.
*Bulk Viscosity
0.06, 1.2
** 
** BOUNDARY CONDITIONS
** 
** Name: BC-1 Type: Symmetry/Antisymmetry/Encastre
*Boundary
Set-1, ENCASTRE
** 
** LOADS
** 
** Name: Load-1   Type: Pressure
*Dsload, amplitude=Amp-1
Surf-1, P, 100.
** 
** INTERACTIONS
** 
** Interaction: CP-50-f1-interlocking-1
*Contact Pair, interaction=IntProp-1, mechanical constraint=KINEMATIC, cpset=CP-50-f1-interlocking-1
CP-99-f1, CP-50-interlocking-1
** Interaction: CP-51-f1-interlocking-1
*Contact Pair, interaction=IntProp-1, mechanical constraint=KINEMATIC, cpset=CP-51-f1-interlocking-1
CP-100-f1, CP-51-interlocking-1
** Interaction: CP-52-f1-interlocking-1
*Contact Pair, interaction=IntProp-1, mechanical constraint=KINEMATIC, cpset=CP-52-f1-interlocking-1
CP-101-f1, CP-52-interlocking-1
** Interaction: CP-53-f1-interlocking-1
*Contact Pair, interaction=IntProp-1, mechanical constraint=KINEMATIC, cpset=CP-53-f1-interlocking-1
CP-102-f1, CP-53-interlocking-1
** Interaction: CP-54-f1-interlocking-1
*Contact Pair, interaction=IntProp-1, mechanical constraint=KINEMATIC, cpset=CP-54-f1-interlocking-1
CP-103-f1, CP-54-interlocking-1
** Interaction: CP-55-f1-interlocking-1
*Contact Pair, interaction=IntProp-1, mechanical constraint=KINEMATIC, cpset=CP-55-f1-interlocking-1
CP-104-f1, CP-55-interlocking-1
** Interaction: CP-56-f1-interlocking-1
*Contact Pair, interaction=IntProp-1, mechanical constraint=KINEMATIC, cpset=CP-56-f1-interlocking-1
CP-105-f1, CP-56-interlocking-1
** Interaction: CP-57-f1-interlocking-1
*Contact Pair, interaction=IntProp-1, mechanical constraint=KINEMATIC, cpset=CP-57-f1-interlocking-1
CP-106-f1, CP-57-interlocking-1
** Interaction: CP-58-f1-interlocking-1
*Contact Pair, interaction=IntProp-1, mechanical constraint=KINEMATIC, cpset=CP-58-f1-interlocking-1
CP-107-f1, CP-58-interlocking-1
** Interaction: CP-59-f1-interlocking-1
*Contact Pair, interaction=IntProp-1, mechanical constraint=KINEMATIC, cpset=CP-59-f1-interlocking-1
CP-108-f1, CP-59-interlocking-1
** Interaction: CP-60-f1-interlocking-1
*Contact Pair, interaction=IntProp-1, mechanical constraint=KINEMATIC, cpset=CP-60-f1-interlocking-1
CP-109-f1, CP-60-interlocking-1
** Interaction: CP-61-f1-interlocking-1
*Contact Pair, interaction=IntProp-1, mechanical constraint=KINEMATIC, cpset=CP-61-f1-interlocking-1
CP-110-f1, CP-61-interlocking-1
** Interaction: CP-62-f1-interlocking-1
*Contact Pair, interaction=IntProp-1, mechanical constraint=KINEMATIC, cpset=CP-62-f1-interlocking-1
CP-111-f1, CP-62-interlocking-1
** Interaction: CP-63-f1-interlocking-1
*Contact Pair, interaction=IntProp-1, mechanical constraint=KINEMATIC, cpset=CP-63-f1-interlocking-1
CP-112-f1, CP-63-interlocking-1
** Interaction: CP-64-f1-interlocking-1
*Contact Pair, interaction=IntProp-1, mechanical constraint=KINEMATIC, cpset=CP-64-f1-interlocking-1
CP-113-f1, CP-64-interlocking-1
** Interaction: CP-65-f1-interlocking-1
*Contact Pair, interaction=IntProp-1, mechanical constraint=KINEMATIC, cpset=CP-65-f1-interlocking-1
CP-114-f1, CP-65-interlocking-1
** Interaction: CP-66-f1-interlocking-1
*Contact Pair, interaction=IntProp-1, mechanical constraint=KINEMATIC, cpset=CP-66-f1-interlocking-1
CP-115-f1, CP-66-interlocking-1
** Interaction: CP-67-f1-interlocking-1
*Contact Pair, interaction=IntProp-1, mechanical constraint=KINEMATIC, cpset=CP-67-f1-interlocking-1
CP-116-f1, CP-67-interlocking-1
** Interaction: CP-68-f1-interlocking-1
*Contact Pair, interaction=IntProp-1, mechanical constraint=KINEMATIC, cpset=CP-68-f1-interlocking-1
CP-117-f1, CP-68-interlocking-1
** Interaction: CP-69-f1-interlocking-1
*Contact Pair, interaction=IntProp-1, mechanical constraint=KINEMATIC, cpset=CP-69-f1-interlocking-1
CP-118-f1, CP-69-interlocking-1
** ... 27 like lines cut
** Interaction: CP-79-interlocking-1-interlocking-1
*Contact Pair, interaction=IntProp-1, mechanical constraint=KINEMATIC, cpset=CP-79-interlocking-1-interlocking-1
CP-79-interlocking-1, CP-80-interlocking-1
** Interaction: CP-80-interlocking-1-interlocking-1
*Contact Pair, interaction=IntProp-1, mechanical constraint=KINEMATIC, cpset=CP-80-interlocking-1-interlocking-1
CP-81-interlocking-1, CP-82-interlocking-1
** Interaction: CP-81-interlocking-1-interlocking-1
*Contact Pair, interaction=IntProp-1, mechanical constraint=KINEMATIC, cpset=CP-81-interlocking-1-interlocking-1
CP-83-interlocking-1, CP-84-interlocking-1
** Interaction: CP-82-interlocking-1-interlocking-1
*Contact Pair, interaction=IntProp-1, mechanical constraint=KINEMATIC, cpset=CP-82-interlocking-1-interlocking-1
CP-85-interlocking-1, CP-86-interlocking-1
** Interaction: CP-83-interlocking-1-interlocking-1
*Contact Pair, interaction=IntProp-1, mechanical constraint=KINEMATIC, cpset=CP-83-interlocking-1-interlocking-1
CP-87-interlocking-1, CP-88-interlocking-1
** Interaction: CP-84-interlocking-1-interlocking-1
*Contact Pair, interaction=IntProp-1, mechanical constraint=KINEMATIC, cpset=CP-84-interlocking-1-interlocking-1
CP-89-interlocking-1, CP-90-interlocking-1
** Interaction: CP-85-interlocking-1-interlocking-1
*Contact Pair, interaction=IntProp-1, mechanical constraint=KINEMATIC, cpset=CP-85-interlocking-1-interlocking-1
CP-91-interlocking-1, CP-92-interlocking-1
** Interaction: CP-86-interlocking-1-interlocking-1
*Contact Pair, interaction=IntProp-1, mechanical constraint=KINEMATIC, cpset=CP-86-interlocking-1-interlocking-1
CP-93-interlocking-1, CP-94-interlocking-1
** Interaction: CP-87-interlocking-1-interlocking-1
*Contact Pair, interaction=IntProp-1, mechanical constraint=KINEMATIC, cpset=CP-87-interlocking-1-interlocking-1
CP-95-interlocking-1, CP-96-interlocking-1
** Interaction: CP-88-interlocking-1-interlocking-1
*Contact Pair, interaction=IntProp-1, mechanical constraint=KINEMATIC, cpset=CP-88-interlocking-1-interlocking-1
CP-97-interlocking-1, CP-98-interlocking-1
** Interaction: CP-89-interlocking-1-interlocking-1
*Contact Pair, interaction=IntProp-1, mechanical constraint=KINEMATIC, cpset=CP-89-interlocking-1-interlocking-1
CP-99-interlocking-1, CP-100-interlocking-1
** Interaction: CP-90-interlocking-1-interlocking-1
*Contact Pair, interaction=IntProp-1, mechanical constraint=KINEMATIC, cpset=CP-90-interlocking-1-interlocking-1
CP-101-interlocking-1, CP-102-interlocking-1
** Interaction: CP-91-interlocking-1-interlocking-1
*Contact Pair, interaction=IntProp-1, mechanical constraint=KINEMATIC, cpset=CP-91-interlocking-1-interlocking-1
CP-103-interlocking-1, CP-104-interlocking-1
** Interaction: CP-92-interlocking-1-interlocking-1
*Contact Pair, interaction=IntProp-1, mechanical constraint=KINEMATIC, cpset=CP-92-interlocking-1-interlocking-1
CP-105-interlocking-1, CP-106-interlocking-1
** Interaction: CP-93-interlocking-1-interlocking-1
*Contact Pair, interaction=IntProp-1, mechanical constraint=KINEMATIC, cpset=CP-93-interlocking-1-interlocking-1
CP-107-interlocking-1, CP-108-interlocking-1
** Interaction: CP-94-interlocking-1-interlocking-1
*Contact Pair, interaction=IntProp-1, mechanical constraint=KINEMATIC, cpset=CP-94-interlocking-1-interlocking-1
CP-109-interlocking-1, CP-110-interlocking-1
** Interaction: CP-95-interlocking-1-interlocking-1
*Contact Pair, interaction=IntProp-1, mechanical constraint=KINEMATIC, cpset=CP-95-interlocking-1-interlocking-1
CP-111-interlocking-1, CP-112-interlocking-1
** Interaction: CP-96-interlocking-1-interlocking-1
*Contact Pair, interaction=IntProp-1, mechanical constraint=KINEMATIC, cpset=CP-96-interlocking-1-interlocking-1
CP-113-interlocking-1, CP-114-interlocking-1
** Interaction: CP-97-interlocking-1-interlocking-1
*Contact Pair, interaction=IntProp-1, mechanical constraint=KINEMATIC, cpset=CP-97-interlocking-1-interlocking-1
CP-115-interlocking-1, CP-116-interlocking-1
** Interaction: CP-98-interlocking-1-interlocking-1
*Contact Pair, interaction=IntProp-1, mechanical constraint=KINEMATIC, cpset=CP-98-interlocking-1-interlocking-1
CP-117-interlocking-1, CP-118-interlocking-1
** ... 18 like lines cut
** 
** OUTPUT REQUESTS
** 
*Restart, write, number interval=1, time marks=NO
** 
** FIELD OUTPUT: F-Output-1
** 
*Output, field, number interval=100
*Node Output
A, RF, U, V
*Element Output, directions=YES
EVF, LE, PE, PEEQ, PEEQVAVG, PEVAVG, S, SVAVG
*Contact Output
CFORCE, CSTRESS
** 
** HISTORY OUTPUT: H-Output-1
** 
*Output, history, variable=PRESELECT
*End Step
** ----------------------------------------------------------------
** 
** STEP: Step-2
** 
*Step, name=Step-2, nlgeom=YES
*Dynamic, Explicit
, 30.
*Bulk Viscosity
0.06, 1.2
** 
** OUTPUT REQUESTS
** 
*Restart, write, number interval=1, time marks=NO
** 
** FIELD OUTPUT: F-Output-1
** 
*Output, field, number interval=100
*Node Output
A, RF, U, V
*Element Output, directions=YES
EVF, LE, PE, PEEQ, PEEQVAVG, PEVAVG, S, SVAVG
*Contact Output
CFORCE, CSTRESS
** 
** HISTORY OUTPUT: H-Output-1
** 
*Output, history, variable=PRESELECT
*End Step
