*Heading
** Job name: interlocking-1h Model name: interlocking-1
** Generated by: Abaqus/CAE 2023
*Preprint, echo=NO, model=NO, history=NO, contact=NO
**
** PARTS
**
*Part, name=frame
*Node
      1,   8.99800014,   8.99800014,   1.41400003
      2,   9.99800014,   7.99800062,           0.
      3,   9.99800014,   7.99800014,   1.41400003
      4,          11.,   6.99800014,   1.41400003
      5,   8.99800014,          11.,   1.41400003
      6,   9.99800014,   9.99800014,           0.
      7,   9.99800014,   9.99800014,   1.41400003
      8,   9.99800014,   3.99799991,   1.41400003
      9,   9.99800014,   3.99799967,           0.
     10,          11.,           3.,   1.41400003
     11,   6.99800062,           3.,   1.41400003
     12,   5.99800062,   3.99799967,           0.
     13,   5.99800014,   3.99799991,   1.41400003
     14,   4.99800014,   4.99800014,   1.41400003
     15,          11.,          -1.,   1.41400003
     16,   9.99800014,          -2.,           0.
     17,   9.99800014,          -2.,   1.41400003
     18,   9.99800014, 2.38419005e-07,           0.
     19,   9.99800014,           2.,           0.
     20,   9.99800014,   5.99800062,           0.
** ... 6948 like lines cut
*Element, type=R3D3
1, 2470, 2465, 2473
20, 2482,  161,  162
40, 2499, 2492, 2498
60, 2506,  195,  196
80, 2518,  205,  206
100, 2530,  219,  220
120, 2547, 2540, 2546
140, 2569, 2561, 2567
172, 2589, 2591, 2584
204, 2611, 2613, 2604
236, 2622, 2621, 2619
237, 2620,  277,  278
238, 2623, 2614, 2615
257, 2632,  287,  288
277, 2657, 2659, 2651
309, 2679, 2681, 2673
341, 2703, 2696, 2701
373, 2709, 2704, 2712
374, 2711, 2710, 2708
375, 2706, 2713, 2714
** ... 450 like lines cut
*Element, type=R3D4
 2, 2468, 2467,  149,  150
 3, 2468, 2466, 2474, 2467
 4,  155, 2466, 2465,  154
 5, 2470,  153,  154, 2465
 6,  152,    2,  153, 2470
 7, 2466, 2468, 2473, 2465
 8,  157, 2474,  156,    3
 9, 2467, 2474, 2475, 2472
10,  148, 2472, 2469,  147
11,  147, 2469,  160,    1
12, 2466,  155,  156, 2474
13,  157,  158, 2475, 2474
14, 2471, 2475,  158,  159
15, 2471, 2469, 2472, 2475
16, 2473, 2468,  150,  151
17,  159,  160, 2469, 2471
18,  151,  152, 2470, 2473
19, 2472,  148,  149, 2467
21, 2478, 2487, 2480, 2479
22, 2480, 2487, 2486, 2476
** ... 6713 like lines cut
*Node
   6969,   7.99800014,   7.99800014,   1.41400003
*Nset, nset=frame-RefPt_, internal
6969, 
*Elset, elset=frame, generate
    1,  7203,     1
*End Part
**  
*Part, name=interlocking
*Node
      1,   1.94217598, -0.0164160002,           0.
      2, 0.0221759994,  -1.93641603,           0.
      3, 0.0221759994, -0.0164160002,           0.
      4,  0.982175946, -0.976416051,   1.35764503
      5, 0.0221759994, -0.0164160002,   1.35764503
      6,  0.982176006,  0.943584085,   1.35764503
      7,    1.9421761,  -1.93641603,           0.
      8,   1.94217598, -0.0164160002,   1.35764503
      9,    2.9021759, -0.976415992,   1.35764503
     10,   1.94217598,  -1.93641603,   1.35764503
     11, -0.0164160002,  -1.94217598,           0.
     12,  -1.93641603, -0.0221759994,           0.
     13, -0.0164160002, -0.0221759994,           0.
     14, -0.976416051, -0.982175946,   1.35764503
     15, -0.0164160002, -0.0221759994,   1.35764503
     16,  0.943584085, -0.982176006,   1.35764503
     17,  -1.93641603,   -1.9421761,           0.
     18, -0.0164160002,  -1.94217598,   1.35764503
     19, -0.976415992,   -2.9021759,   1.35764503
     20,  -1.93641603,  -1.94217598,   1.35764503
** ... 14038 like lines cut
*Element, type=C3D10
   1, 1213, 1214, 1215, 1216, 2117, 2116, 2115, 2119, 2118, 2120
   2, 1213, 1217, 1218, 1219, 2123, 2122, 2121, 2125, 2124, 2126
   3, 1213, 1216, 1215, 1218, 2119, 2120, 2115, 2121, 2127, 2128
   4, 1213, 1220, 1215, 1214, 2130, 2129, 2115, 2117, 2131, 2116
   5, 1213, 1221, 1222, 1223, 2134, 2133, 2132, 2136, 2135, 2137
   6, 1213, 1224, 1217, 1225, 2139, 2138, 2123, 2141, 2140, 2142
   7, 1213, 1222, 1225, 1226, 2132, 2143, 2141, 2145, 2144, 2146
   8, 1227, 1228, 1229, 1230, 2149, 2148, 2147, 2151, 2150, 2152
   9, 1231, 1228, 1232, 1229, 2155, 2154, 2153, 2156, 2148, 2157
  10, 1228, 1227, 1231, 1233, 2149, 2158, 2155, 2160, 2159, 2161
  11, 1228, 1234, 1235, 1236, 2164, 2163, 2162, 2166, 2165, 2167
  12, 1229, 1230, 1237, 1227, 2152, 2169, 2168, 2147, 2151, 2170
  13,  714,  167,  150,  130, 2173, 2172, 2171, 2175, 2174, 2176
  14, 1228, 1234, 1238, 1235, 2164, 2178, 2177, 2162, 2163, 2179
  15,  136,   98,   97,    7, 2182, 2181, 2180, 2184, 2183, 2185
  16, 1228, 1229, 1239, 1232, 2148, 2187, 2186, 2154, 2157, 2188
  17, 1240,  166, 1241, 1242, 2191, 2190, 2189, 2193, 2192, 2194
  18, 1243,  134,  135,  651, 2197, 2196, 2195, 2199, 2198, 2200
  19, 1244, 1245, 1246, 1247, 2203, 2202, 2201, 2205, 2204, 2206
  20, 1245, 1247,  165, 1240, 2204, 2208, 2207, 2210, 2209, 2211
** ... 8610 like lines cut
*Nset, nset=Set-1, generate
     1,  14058,      1
*Elset, elset=Set-1, generate
    1,  8630,     1
** Section: Section-1
*Solid Section, elset=Set-1, material=high-strength
,
*End Part
**  
**
** ASSEMBLY
**
*Assembly, name=Assembly
**  
*Instance, name=f1, part=frame
         -4.,          -4.,           0.
*End Instance
**  
*Instance, name=interlocking-1, part=interlocking
*End Instance
**  
*Nset, nset=Set-1, instance=f1, generate
    1,  6969,     1
*Elset, elset=Set-1, instance=f1, generate
    1,  7203,     1
*Elset, elset=_CP-5-f1_SNEG, internal, instance=f1, generate
  80,  119,    1
*Surface, type=ELEMENT, name=CP-5-f1
_CP-5-f1_SNEG, SNEG
*Elset, elset=_CP-6-f1_SNEG, internal, instance=f1, generate
 413,  432,    1
*Surface, type=ELEMENT, name=CP-6-f1
_CP-6-f1_SNEG, SNEG
*Elset, elset=_CP-7-f1_SNEG, internal, instance=f1, generate
 475,  514,    1
*Surface, type=ELEMENT, name=CP-7-f1
_CP-7-f1_SNEG, SNEG
*Elset, elset=_CP-8-f1_SNEG, internal, instance=f1
 577, 578, 579, 580, 581, 582, 583, 584, 585, 586, 587, 588, 589, 590, 591, 592
 593, 594, 595, 596, 597, 639, 640, 641, 642, 643, 644, 645, 646, 647, 648, 649
 650, 651, 652, 653, 654, 655, 656, 657, 658, 659
*Surface, type=ELEMENT, name=CP-8-f1
_CP-8-f1_SNEG, SNEG
*Elset, elset=_CP-9-f1_SNEG, internal, instance=f1, generate
 660,  691,    1
*Surface, type=ELEMENT, name=CP-9-f1
_CP-9-f1_SNEG, SNEG
*Elset, elset=_CP-10-f1_SNEG, internal, instance=f1, generate
 692,  722,    1
*Surface, type=ELEMENT, name=CP-10-f1
_CP-10-f1_SNEG, SNEG
*Elset, elset=_CP-11-f1_SNEG, internal, instance=f1, generate
 804,  835,    1
*Surface, type=ELEMENT, name=CP-11-f1
_CP-11-f1_SNEG, SNEG
*Elset, elset=_CP-12-f1_SNEG, internal, instance=f1, generate
  993,  1012,     1
*Surface, type=ELEMENT, name=CP-12-f1
_CP-12-f1_SNEG, SNEG
*Elset, elset=_CP-13-f1_SNEG, internal, instance=f1, generate
 1013,  1044,     1
*Surface, type=ELEMENT, name=CP-13-f1
_CP-13-f1_SNEG, SNEG
*Elset, elset=_CP-14-f1_SNEG, internal, instance=f1, generate
 1299,  1318,     1
*Surface, type=ELEMENT, name=CP-14-f1
_CP-14-f1_SNEG, SNEG
*Elset, elset=_CP-15-f1_SNEG, internal, instance=f1, generate
 1516,  1534,     1
*Surface, type=ELEMENT, name=CP-15-f1
_CP-15-f1_SNEG, SNEG
*Elset, elset=_CP-16-f1_SNEG, internal, instance=f1, generate
 1535,  1553,     1
*Surface, type=ELEMENT, name=CP-16-f1
_CP-16-f1_SNEG, SNEG
*Elset, elset=_CP-17-f1_SNEG, internal, instance=f1, generate
 1574,  1605,     1
*Surface, type=ELEMENT, name=CP-17-f1
_CP-17-f1_SNEG, SNEG
*Elset, elset=_CP-18-f1_SNEG, internal, instance=f1, generate
 1606,  1625,     1
*Surface, type=ELEMENT, name=CP-18-f1
_CP-18-f1_SNEG, SNEG
*Elset, elset=_CP-19-f1_SNEG, internal, instance=f1, generate
 1626,  1657,     1
*Surface, type=ELEMENT, name=CP-19-f1
_CP-19-f1_SNEG, SNEG
*Elset, elset=_CP-20-f1_SNEG, internal, instance=f1, generate
 1697,  1716,     1
*Surface, type=ELEMENT, name=CP-20-f1
_CP-20-f1_SNEG, SNEG
*Elset, elset=_CP-21-f1_SNEG, internal, instance=f1, generate
 1737,  1757,     1
*Surface, type=ELEMENT, name=CP-21-f1
_CP-21-f1_SNEG, SNEG
*Elset, elset=_CP-22-f1_SNEG, internal, instance=f1, generate
 1778,  1809,     1
*Surface, type=ELEMENT, name=CP-22-f1
_CP-22-f1_SNEG, SNEG
*Elset, elset=_CP-23-f1_SNEG, internal, instance=f1
 1810, 1811, 1812, 1813, 1814, 1815, 1816, 1817, 1818, 1819, 1820, 1821, 1822, 1823, 1824, 1825
 1826, 1827, 1828, 1829, 1830, 1871, 1872, 1873, 1874, 1875, 1876, 1877, 1878, 1879, 1880, 1881
 1882, 1883, 1884, 1885, 1886, 1887, 1888, 1889, 1890, 1891
*Surface, type=ELEMENT, name=CP-23-f1
_CP-23-f1_SNEG, SNEG
*Elset, elset=_CP-24-f1_SNEG, internal, instance=f1, generate
 2067,  2098,     1
*Surface, type=ELEMENT, name=CP-24-f1
_CP-24-f1_SNEG, SNEG
*Elset, elset=_CP-25-f1_SNEG, internal, instance=f1, generate
  80,  119,    1
*Surface, type=ELEMENT, name=CP-25-f1
_CP-25-f1_SNEG, SNEG
*Elset, elset=_CP-26-f1_SNEG, internal, instance=f1, generate
 413,  432,    1
*Surface, type=ELEMENT, name=CP-26-f1
_CP-26-f1_SNEG, SNEG
*Elset, elset=_CP-27-f1_SNEG, internal, instance=f1, generate
 475,  514,    1
*Surface, type=ELEMENT, name=CP-27-f1
_CP-27-f1_SNEG, SNEG
*Elset, elset=_CP-28-f1_SNEG, internal, instance=f1
 577, 578, 579, 580, 581, 582, 583, 584, 585, 586, 587, 588, 589, 590, 591, 592
 593, 594, 595, 596, 597, 639, 640, 641, 642, 643, 644, 645, 646, 647, 648, 649
 650, 651, 652, 653, 654, 655, 656, 657, 658, 659
*Surface, type=ELEMENT, name=CP-28-f1
_CP-28-f1_SNEG, SNEG
*Elset, elset=_CP-29-f1_SNEG, internal, instance=f1, generate
 660,  691,    1
*Surface, type=ELEMENT, name=CP-29-f1
_CP-29-f1_SNEG, SNEG
*Elset, elset=_CP-30-f1_SNEG, internal, instance=f1, generate
 692,  722,    1
*Surface, type=ELEMENT, name=CP-30-f1
_CP-30-f1_SNEG, SNEG
*Elset, elset=_CP-31-f1_SNEG, internal, instance=f1, generate
 804,  835,    1
*Surface, type=ELEMENT, name=CP-31-f1
_CP-31-f1_SNEG, SNEG
*Elset, elset=_CP-32-f1_SNEG, internal, instance=f1, generate
  993,  1012,     1
*Surface, type=ELEMENT, name=CP-32-f1
_CP-32-f1_SNEG, SNEG
*Elset, elset=_CP-33-f1_SNEG, internal, instance=f1, generate
 1013,  1044,     1
*Surface, type=ELEMENT, name=CP-33-f1
_CP-33-f1_SNEG, SNEG
*Elset, elset=_CP-34-f1_SNEG, internal, instance=f1, generate
 1299,  1318,     1
*Surface, type=ELEMENT, name=CP-34-f1
_CP-34-f1_SNEG, SNEG
*Elset, elset=_CP-35-f1_SNEG, internal, instance=f1, generate
 1516,  1534,     1
*Surface, type=ELEMENT, name=CP-35-f1
_CP-35-f1_SNEG, SNEG
*Elset, elset=_CP-36-f1_SNEG, internal, instance=f1, generate
 1535,  1553,     1
*Surface, type=ELEMENT, name=CP-36-f1
_CP-36-f1_SNEG, SNEG
*Elset, elset=_CP-37-f1_SNEG, internal, instance=f1, generate
 1574,  1605,     1
*Surface, type=ELEMENT, name=CP-37-f1
_CP-37-f1_SNEG, SNEG
*Elset, elset=_CP-38-f1_SNEG, internal, instance=f1, generate
 1606,  1625,     1
*Surface, type=ELEMENT, name=CP-38-f1
_CP-38-f1_SNEG, SNEG
*Elset, elset=_CP-39-f1_SNEG, internal, instance=f1, generate
 1626,  1657,     1
*Surface, type=ELEMENT, name=CP-39-f1
_CP-39-f1_SNEG, SNEG
*Elset, elset=_CP-39-interlocking-1_S3, internal, instance=interlocking-1
   97,  121,  212,  375,  376,  628,  642,  878, 1025, 1072, 1116, 1231, 1242, 1276, 1291, 1307
 1365, 1429, 1479, 1516, 1539, 1541, 1542, 1544, 1548, 1568, 1614, 1616, 1622, 1628, 1632, 1638
 1646, 1648, 1663, 1665, 1694, 1697, 1705, 1716, 1843, 1938, 1947, 1956, 1957, 1959, 1968, 1975
 1976, 1987, 1988, 1991, 2023, 2040, 2042, 2047, 2071
*Elset, elset=_CP-39-interlocking-1_S4, internal, instance=interlocking-1
 1984,
*Surface, type=ELEMENT, name=CP-39-interlocking-1
_CP-39-interlocking-1_S3, S3
_CP-39-interlocking-1_S4, S4
*Elset, elset=_CP-40-f1_SNEG, internal, instance=f1, generate
 1697,  1716,     1
*Surface, type=ELEMENT, name=CP-40-f1
_CP-40-f1_SNEG, SNEG
*Elset, elset=_CP-40-interlocking-1_S3, internal, instance=interlocking-1
   91,  166,  579,  581,  727, 1048, 1152, 1384, 1386, 1420, 1562, 1579, 1581, 1582, 1584, 1585
 1589, 1590, 1605, 1728, 1842, 1845, 1854
*Elset, elset=_CP-40-interlocking-1_S1, internal, instance=interlocking-1
 167,
*Elset, elset=_CP-40-interlocking-1_S2, internal, instance=interlocking-1
 1563, 1594, 1633, 1844
*Elset, elset=_CP-40-interlocking-1_S4, internal, instance=interlocking-1
 1606,
*Surface, type=ELEMENT, name=CP-40-interlocking-1
_CP-40-interlocking-1_S3, S3
_CP-40-interlocking-1_S1, S1
_CP-40-interlocking-1_S2, S2
_CP-40-interlocking-1_S4, S4
*Elset, elset=_CP-41-f1_SNEG, internal, instance=f1, generate
 1737,  1757,     1
*Surface, type=ELEMENT, name=CP-41-f1
_CP-41-f1_SNEG, SNEG
*Elset, elset=_CP-41-interlocking-1_S3, internal, instance=interlocking-1
 2195, 2226, 2334, 2489, 2595, 2686, 2755, 3130, 3195, 3366, 3426, 3474, 3494, 3590, 3646, 3672
 3673, 3680, 3694, 3721, 3741, 3744, 3749, 3755, 3756, 3757, 3761, 3764, 3772, 3774, 3797, 3810
 3822, 4008, 4011, 4019, 4022, 4027, 4035, 4036, 4038, 4039, 4054, 4066, 4067, 4072, 4075, 4079
 4084, 4110, 4134, 4155, 4298
*Elset, elset=_CP-41-interlocking-1_S4, internal, instance=interlocking-1
 2687, 3612, 4080
*Elset, elset=_CP-41-interlocking-1_S1, internal, instance=interlocking-1
 4081, 4291
*Surface, type=ELEMENT, name=CP-41-interlocking-1
_CP-41-interlocking-1_S3, S3
_CP-41-interlocking-1_S4, S4
_CP-41-interlocking-1_S1, S1
*Elset, elset=_CP-42-f1_SNEG, internal, instance=f1, generate
 1778,  1809,     1
*Surface, type=ELEMENT, name=CP-42-f1
_CP-42-f1_SNEG, SNEG
*Elset, elset=_CP-42-interlocking-1_S3, internal, instance=interlocking-1
 4408, 4410, 4918, 4954, 5109, 5117, 5226, 5299, 5433, 5435, 5487, 5507, 5561, 5577, 5578, 5649
 5667, 5817, 5819, 5836, 5878, 5879, 5883, 5895, 5897, 5898, 5913, 5917, 5944, 5945, 5948, 5954
 5960, 6080, 6115, 6141, 6152, 6163, 6166, 6172, 6180, 6186, 6194, 6198, 6218, 6221, 6222, 6228
 6230, 6250, 6291, 6295, 6445, 6452
*Elset, elset=_CP-42-interlocking-1_S1, internal, instance=interlocking-1
 5210,
*Elset, elset=_CP-42-interlocking-1_S2, internal, instance=interlocking-1
 4840, 6209
*Elset, elset=_CP-42-interlocking-1_S4, internal, instance=interlocking-1
 6227,
*Surface, type=ELEMENT, name=CP-42-interlocking-1
_CP-42-interlocking-1_S3, S3
_CP-42-interlocking-1_S1, S1
_CP-42-interlocking-1_S2, S2
_CP-42-interlocking-1_S4, S4
*Elset, elset=_CP-43-f1_SNEG, internal, instance=f1
 1810, 1811, 1812, 1813, 1814, 1815, 1816, 1817, 1818, 1819, 1820, 1821, 1822, 1823, 1824, 1825
 1826, 1827, 1828, 1829, 1830, 1871, 1872, 1873, 1874, 1875, 1876, 1877, 1878, 1879, 1880, 1881
 1882, 1883, 1884, 1885, 1886, 1887, 1888, 1889, 1890, 1891
*Surface, type=ELEMENT, name=CP-43-f1
_CP-43-f1_SNEG, SNEG
*Elset, elset=_CP-43-interlocking-1_S3, internal, instance=interlocking-1
   18,  242,  348,  479,  676,  848,  932,  952, 1114, 1192, 1193, 1219, 1298, 1478, 1587, 1593
 1604, 1611, 1613, 1627, 1641, 1642, 1714, 1795, 1797, 1816, 1824, 1831, 1835, 1841, 1846, 1850
 1860, 1864, 1867, 1873, 1882, 1894, 1901, 1911, 1912, 1913, 1918, 1921, 1926, 1939, 1942, 1943
*Elset, elset=_CP-43-interlocking-1_S1, internal, instance=interlocking-1
 630,
*Surface, type=ELEMENT, name=CP-43-interlocking-1
_CP-43-interlocking-1_S3, S3
_CP-43-interlocking-1_S1, S1
*Elset, elset=_CP-44-f1_SNEG, internal, instance=f1, generate
 2067,  2098,     1
*Surface, type=ELEMENT, name=CP-44-f1
_CP-44-f1_SNEG, SNEG
*Elset, elset=_CP-44-interlocking-1_S1, internal, instance=interlocking-1
 2757,
*Elset, elset=_CP-44-interlocking-1_S3, internal, instance=interlocking-1
 2877, 2975, 3067, 3324, 3325, 3353, 3473, 3718, 3737, 3754, 3762, 3763, 3818, 3825, 3890, 3907
 3909, 3914, 3916, 3920, 3925, 3934, 3936, 3938, 3943, 3948, 3951, 3952, 3979, 3985, 3986, 3987
 3989, 3990, 3996, 3997, 4018, 4065, 4086, 4189, 4210, 4238, 4269, 4294, 4295, 4308, 4329
*Elset, elset=_CP-44-interlocking-1_S4, internal, instance=interlocking-1
 3791,
*Surface, type=ELEMENT, name=CP-44-interlocking-1
_CP-44-interlocking-1_S1, S1
_CP-44-interlocking-1_S3, S3
_CP-44-interlocking-1_S4, S4
*Elset, elset=_CP-45-interlocking-1_S3, internal, instance=interlocking-1
 2295, 3139, 3160, 3234, 3241, 3246, 3346, 3348, 3440, 3556, 3560, 3561, 3604, 3619, 3627, 3839
 3844, 3869, 3870, 3875, 3881, 3885, 3888, 3898, 3901, 3923, 4037, 4193, 4237, 4272, 4317
*Elset, elset=_CP-45-interlocking-1_S4, internal, instance=interlocking-1
 2826, 3618, 3848, 3864, 3866, 4262
*Elset, elset=_CP-45-interlocking-1_S2, internal, instance=interlocking-1
 3795, 3841, 3855, 4070, 4241, 4325
*Elset, elset=_CP-45-interlocking-1_S1, internal, instance=interlocking-1
 3852, 3903, 4182, 4275, 4288, 4319
*Surface, type=ELEMENT, name=CP-45-interlocking-1
_CP-45-interlocking-1_S3, S3
_CP-45-interlocking-1_S4, S4
_CP-45-interlocking-1_S2, S2
_CP-45-interlocking-1_S1, S1
*Elset, elset=_CP-46-interlocking-1_S3, internal, instance=interlocking-1
 4754, 4868, 4870, 5177, 5831, 5835, 5850, 5854, 5855, 5859, 5860, 5862, 5863, 5865, 5867, 5871
 5876, 5880, 5881, 6046, 6049, 6120, 6142, 6465
*Elset, elset=_CP-46-interlocking-1_S1, internal, instance=interlocking-1
 5704,
*Elset, elset=_CP-46-interlocking-1_S2, internal, instance=interlocking-1
 5832, 5970, 6091
*Elset, elset=_CP-46-interlocking-1_S4, internal, instance=interlocking-1
 5853,
*Surface, type=ELEMENT, name=CP-46-interlocking-1
_CP-46-interlocking-1_S3, S3
_CP-46-interlocking-1_S1, S1
_CP-46-interlocking-1_S2, S2
_CP-46-interlocking-1_S4, S4
*Elset, elset=_CP-47-interlocking-1_S2, internal, instance=interlocking-1
   15, 1286, 1619, 1740, 1751, 1755, 2026
*Elset, elset=_CP-47-interlocking-1_S3, internal, instance=interlocking-1
  149,  359,  504,  757, 1103, 1212, 1214, 1341, 1476, 1489, 1519, 1647, 1732, 1736, 1737, 1777
 1778, 1781, 1788, 1789, 1791, 1792, 1794, 1798, 1818, 1822, 1865, 1877, 2030, 2090, 2136
*Elset, elset=_CP-47-interlocking-1_S4, internal, instance=interlocking-1
  618,  697, 1744, 1763, 2142
*Elset, elset=_CP-47-interlocking-1_S1, internal, instance=interlocking-1
 1059, 1610, 1735, 1760, 1773, 1804
*Surface, type=ELEMENT, name=CP-47-interlocking-1
_CP-47-interlocking-1_S2, S2
_CP-47-interlocking-1_S3, S3
_CP-47-interlocking-1_S4, S4
_CP-47-interlocking-1_S1, S1
*Elset, elset=_CP-48-interlocking-1_S3, internal, instance=interlocking-1
 2337, 2714, 2716, 3174, 3512, 3514, 3693, 3697, 3709, 3711, 3712, 3714, 3716, 3719, 3726, 3728
 3733, 3740, 3830, 3831, 3969, 4005, 4010, 4315
*Elset, elset=_CP-48-interlocking-1_S1, internal, instance=interlocking-1
 2338,
*Elset, elset=_CP-48-interlocking-1_S2, internal, instance=interlocking-1
 3671, 3723, 3931
*Elset, elset=_CP-48-interlocking-1_S4, internal, instance=interlocking-1
 3734,
*Surface, type=ELEMENT, name=CP-48-interlocking-1
_CP-48-interlocking-1_S3, S3
_CP-48-interlocking-1_S1, S1
_CP-48-interlocking-1_S2, S2
_CP-48-interlocking-1_S4, S4
*Elset, elset=_CP-49-interlocking-1_S3, internal, instance=interlocking-1
 2613, 2695, 2715, 2811, 3381, 3533, 3545, 3652, 3664, 3668, 3669, 3691, 3692, 3699, 3700, 3704
 3708, 3717, 3745, 3807, 4013, 4030, 4124
*Elset, elset=_CP-49-interlocking-1_S2, internal, instance=interlocking-1
 3316, 3726, 3831
*Elset, elset=_CP-49-interlocking-1_S4, internal, instance=interlocking-1
 3654, 3716
*Elset, elset=_CP-49-interlocking-1_S1, internal, instance=interlocking-1
 3931,
*Surface, type=ELEMENT, name=CP-49-interlocking-1
_CP-49-interlocking-1_S3, S3
_CP-49-interlocking-1_S2, S2
_CP-49-interlocking-1_S4, S4
_CP-49-interlocking-1_S1, S1
*Elset, elset=_CP-50-interlocking-1_S3, internal, instance=interlocking-1
 7017, 7038, 7124, 7609, 7632, 7836, 7890, 7949, 7950, 7960, 7966, 7971, 7996, 7999, 8004, 8008
 8042, 8055, 8068, 8079, 8202, 8224, 8232, 8521
*Elset, elset=_CP-50-interlocking-1_S2, internal, instance=interlocking-1
 7654, 8123
*Elset, elset=_CP-50-interlocking-1_S4, internal, instance=interlocking-1
 8015, 8227
*Elset, elset=_CP-50-interlocking-1_S1, internal, instance=interlocking-1
 8606,
*Surface, type=ELEMENT, name=CP-50-interlocking-1
_CP-50-interlocking-1_S3, S3
_CP-50-interlocking-1_S2, S2
_CP-50-interlocking-1_S4, S4
_CP-50-interlocking-1_S1, S1
*Elset, elset=_CP-51-interlocking-1_S3, internal, instance=interlocking-1
 7288, 7545, 7557, 7653, 7800, 7873, 7955, 7985, 8037, 8050, 8054, 8064, 8065, 8082, 8109, 8135
 8188, 8206, 8210, 8223, 8225, 8235, 8236, 8239, 8244, 8245, 8247, 8258, 8264, 8273, 8275, 8284
 8285, 8291, 8293, 8300, 8302, 8304, 8310, 8313, 8369, 8465, 8565, 8566, 8570, 8582, 8588, 8600
*Elset, elset=_CP-51-interlocking-1_S4, internal, instance=interlocking-1
 7708,
*Surface, type=ELEMENT, name=CP-51-interlocking-1
_CP-51-interlocking-1_S3, S3
_CP-51-interlocking-1_S4, S4
*Elset, elset=_CP-52-interlocking-1_S3, internal, instance=interlocking-1
 6630, 7016, 7018, 7264, 7612, 7777, 7945, 8005, 8009, 8011, 8012, 8014, 8015, 8017, 8019, 8024
 8025, 8028, 8031, 8033, 8038, 8123, 8158, 8227, 8525
*Elset, elset=_CP-52-interlocking-1_S2, internal, instance=interlocking-1
 6741, 8059, 8606
*Elset, elset=_CP-52-interlocking-1_S4, internal, instance=interlocking-1
 8282,
*Surface, type=ELEMENT, name=CP-52-interlocking-1
_CP-52-interlocking-1_S3, S3
_CP-52-interlocking-1_S2, S2
_CP-52-interlocking-1_S4, S4
*Elset, elset=_CP-53-interlocking-1_S3, internal, instance=interlocking-1
 6644, 6724, 7466, 7765, 7833, 7918, 7974, 8046, 8119, 8129, 8137, 8162, 8165, 8169, 8172, 8174
 8177, 8180, 8183, 8184, 8191, 8207, 8218, 8221, 8231, 8281, 8418, 8532, 8585, 8594, 8613
*Elset, elset=_CP-53-interlocking-1_S2, internal, instance=interlocking-1
 6710, 8136, 8178, 8226, 8238
*Elset, elset=_CP-53-interlocking-1_S4, internal, instance=interlocking-1
 7254, 7405, 8142, 8156, 8160, 8201, 8528
*Elset, elset=_CP-53-interlocking-1_S1, internal, instance=interlocking-1
 8139, 8149, 8166, 8243, 8468, 8508
*Surface, type=ELEMENT, name=CP-53-interlocking-1
_CP-53-interlocking-1_S3, S3
_CP-53-interlocking-1_S2, S2
_CP-53-interlocking-1_S4, S4
_CP-53-interlocking-1_S1, S1
*Elset, elset=_CP-54-interlocking-1_S3, internal, instance=interlocking-1
 4869, 4877, 4973, 5458, 5801, 5802, 5812, 5816, 5829, 5833, 5834, 5842, 5845, 5849, 5852, 5885
 5907, 5909, 5918, 5969, 5971, 5976, 6073, 6122
*Elset, elset=_CP-54-interlocking-1_S2, internal, instance=interlocking-1
 5457, 5880, 6049
*Elset, elset=_CP-54-interlocking-1_S4, internal, instance=interlocking-1
 5859,
*Elset, elset=_CP-54-interlocking-1_S1, internal, instance=interlocking-1
 5970,
*Surface, type=ELEMENT, name=CP-54-interlocking-1
_CP-54-interlocking-1_S3, S3
_CP-54-interlocking-1_S2, S2
_CP-54-interlocking-1_S4, S4
_CP-54-interlocking-1_S1, S1
*Elset, elset=_CP-55-interlocking-1_S4, internal, instance=interlocking-1
   91, 1842
*Elset, elset=_CP-55-interlocking-1_S3, internal, instance=interlocking-1
  237,  394,  560,  580,  683, 1244, 1406, 1520, 1522, 1532, 1533, 1534, 1560, 1561, 1569, 1570
 1574, 1578, 1660, 1664, 1702, 1720, 1801, 1827
*Elset, elset=_CP-55-interlocking-1_S2, internal, instance=interlocking-1
  773, 1728
*Elset, elset=_CP-55-interlocking-1_S1, internal, instance=interlocking-1
 1844,
*Surface, type=ELEMENT, name=CP-55-interlocking-1
_CP-55-interlocking-1_S4, S4
_CP-55-interlocking-1_S3, S3
_CP-55-interlocking-1_S2, S2
_CP-55-interlocking-1_S1, S1
*Elset, elset=_CP-56-interlocking-1_S4, internal, instance=interlocking-1
 4980, 5359, 5994, 6009, 6418
*Elset, elset=_CP-56-interlocking-1_S3, internal, instance=interlocking-1
 5073, 5092, 5158, 5213, 5618, 5620, 5669, 5670, 5765, 5776, 5781, 5814, 5966, 5988, 5990, 6002
 6010, 6011, 6016, 6024, 6034, 6054, 6068, 6104, 6261, 6338, 6384, 6415, 6426, 6478
*Elset, elset=_CP-56-interlocking-1_S2, internal, instance=interlocking-1
 5619, 5985, 5998, 6005, 6018, 6380, 6479
*Elset, elset=_CP-56-interlocking-1_S1, internal, instance=interlocking-1
 5984, 6012, 6030, 6039, 6052, 6332, 6449
*Surface, type=ELEMENT, name=CP-56-interlocking-1
_CP-56-interlocking-1_S4, S4
_CP-56-interlocking-1_S3, S3
_CP-56-interlocking-1_S2, S2
_CP-56-interlocking-1_S1, S1
*Elset, elset=_CP-57-interlocking-1_S3, internal, instance=interlocking-1
 6685, 6816, 7076, 7308, 7390, 7456, 7544, 7547, 7645, 7652, 7696, 7714, 7789, 7852, 7858, 7877
 7915, 7933, 7967, 7968, 7969, 8010, 8021, 8041, 8049, 8056, 8057, 8058, 8075, 8095, 8100, 8101
 8113, 8121, 8141, 8237, 8252, 8303, 8305, 8312, 8321, 8327, 8328, 8333, 8352, 8357, 8359, 8366
 8372, 8376, 8377, 8382, 8571, 8576, 8577
*Elset, elset=_CP-57-interlocking-1_S2, internal, instance=interlocking-1
 8340,
*Elset, elset=_CP-57-interlocking-1_S1, internal, instance=interlocking-1
 8615,
*Elset, elset=_CP-57-interlocking-1_S4, internal, instance=interlocking-1
 8203,
*Surface, type=ELEMENT, name=CP-57-interlocking-1
_CP-57-interlocking-1_S3, S3
_CP-57-interlocking-1_S2, S2
_CP-57-interlocking-1_S4, S4
_CP-57-interlocking-1_S1, S1
*Elset, elset=_CP-58-interlocking-1_S1, internal, instance=interlocking-1
 5114,
*Elset, elset=_CP-58-interlocking-1_S3, internal, instance=interlocking-1
 5337, 5365, 5408, 5436, 5718, 5774, 5858, 5874, 5877, 5894, 5902, 5903, 5904, 5957, 5958, 6028
 6041, 6058, 6060, 6063, 6072, 6076, 6079, 6081, 6084, 6085, 6088, 6101, 6103, 6116, 6121, 6129
 6143, 6145, 6148, 6150, 6153, 6158, 6160, 6171, 6208, 6239, 6286, 6345, 6376, 6377, 6422, 6455
*Surface, type=ELEMENT, name=CP-58-interlocking-1
_CP-58-interlocking-1_S1, S1
_CP-58-interlocking-1_S3, S3
*Elset, elset=_CP-59-interlocking-1_S3, internal, instance=interlocking-1
   22,   75,  108,  146,  204,  244,  455,  503,  584,  653,  695,  800,  816,  821,  827,  983
 1008, 1121, 1153, 1178, 1334, 1346, 1438, 1456, 1460, 1506, 1535, 1540, 1620, 1645, 1743, 1819
 1838, 1848, 1925, 1981, 2031, 2039, 2048, 2054, 2066, 2070, 2076, 2084, 2095, 2149, 2154, 2170
*Elset, elset=_CP-59-interlocking-1_S1, internal, instance=interlocking-1
 2014,
*Surface, type=ELEMENT, name=CP-59-interlocking-1
_CP-59-interlocking-1_S3, S3
_CP-59-interlocking-1_S1, S1
*Elset, elset=_CP-60-interlocking-1_S3, internal, instance=interlocking-1
 6564, 6977, 7443, 7591, 7637, 7692, 7758, 7766, 7767, 7796, 7882, 7921, 8128, 8132, 8139, 8179
 8201, 8204, 8217, 8226, 8263, 8423, 8468, 8475, 8479, 8503, 8504, 8505, 8528, 8530, 8535, 8547
 8607, 8610
*Elset, elset=_CP-60-interlocking-1_S1, internal, instance=interlocking-1
 7045, 8192, 8279, 8486
*Elset, elset=_CP-60-interlocking-1_S4, internal, instance=interlocking-1
 7762, 8259, 8309, 8491
*Elset, elset=_CP-60-interlocking-1_S2, internal, instance=interlocking-1
 8389, 8391, 8402, 8487, 8501, 8544, 8559
*Surface, type=ELEMENT, name=CP-60-interlocking-1
_CP-60-interlocking-1_S3, S3
_CP-60-interlocking-1_S1, S1
_CP-60-interlocking-1_S4, S4
_CP-60-interlocking-1_S2, S2
*Elset, elset=_CP-61-interlocking-1_S3, internal, instance=interlocking-1
  590,  687,  836,  910, 1181, 1300, 1565, 1617, 1800, 1828, 1830, 1934, 2024, 2049, 2058, 2059
 2062, 2063, 2068, 2087, 2088, 2112, 2116, 2145
*Elset, elset=_CP-61-interlocking-1_S2, internal, instance=interlocking-1
 1796, 1821
*Elset, elset=_CP-61-interlocking-1_S4, internal, instance=interlocking-1
 1951, 1963, 2151
*Surface, type=ELEMENT, name=CP-61-interlocking-1
_CP-61-interlocking-1_S3, S3
_CP-61-interlocking-1_S2, S2
_CP-61-interlocking-1_S4, S4
*Elset, elset=_CP-62-interlocking-1_S3, internal, instance=interlocking-1
 7659, 7818, 7905, 8120, 8152, 8386, 8404, 8406, 8409, 8414, 8417, 8440, 8453, 8455, 8458, 8460
 8473, 8474, 8484, 8495, 8497, 8523, 8548, 8553, 8555, 8556, 8572
*Elset, elset=_CP-62-interlocking-1_S4, internal, instance=interlocking-1
 8405,
*Elset, elset=_CP-62-interlocking-1_S2, internal, instance=interlocking-1
 8464,
*Surface, type=ELEMENT, name=CP-62-interlocking-1
_CP-62-interlocking-1_S3, S3
_CP-62-interlocking-1_S4, S4
_CP-62-interlocking-1_S2, S2
*Elset, elset=_CP-63-interlocking-1_S3, internal, instance=interlocking-1
 2562, 2645, 2722, 2723, 2756, 2827, 2963, 3043, 3312, 3587, 4006, 4150, 4153, 4154, 4236, 4267
 4277, 4279, 4292, 4296, 4313, 4320, 4324, 4328
*Elset, elset=_CP-63-interlocking-1_S4, internal, instance=interlocking-1
 2951, 3882, 4161, 4173
*Elset, elset=_CP-63-interlocking-1_S2, internal, instance=interlocking-1
 4205,
*Surface, type=ELEMENT, name=CP-63-interlocking-1
_CP-63-interlocking-1_S3, S3
_CP-63-interlocking-1_S4, S4
_CP-63-interlocking-1_S2, S2
*Elset, elset=_CP-64-interlocking-1_S4, internal, instance=interlocking-1
 37,
*Elset, elset=_CP-64-interlocking-1_S3, internal, instance=interlocking-1
 1185, 1234, 1796, 1896, 1899, 1900, 1905, 1907, 1951, 1963, 1964, 1979, 1986, 2004, 2018, 2020
 2035, 2037, 2038, 2041, 2043, 2073, 2074, 2078, 2081, 2151
*Elset, elset=_CP-64-interlocking-1_S2, internal, instance=interlocking-1
 1929, 1953
*Surface, type=ELEMENT, name=CP-64-interlocking-1
_CP-64-interlocking-1_S4, S4
_CP-64-interlocking-1_S3, S3
_CP-64-interlocking-1_S2, S2
*Elset, elset=_CP-65-interlocking-1_S3, internal, instance=interlocking-1
 2205, 2261, 2340, 2345, 2389, 2526, 2639, 2719, 2779, 2828, 2879, 2889, 2953, 3027, 3120, 3146
 3253, 3309, 3354, 3380, 3565, 3586, 3705, 3835, 3843, 3894, 4021, 4048, 4057, 4060, 4061, 4097
 4105, 4106, 4136, 4142, 4146, 4148, 4157, 4162, 4170, 4209, 4220, 4248, 4301, 4303
*Elset, elset=_CP-65-interlocking-1_S2, internal, instance=interlocking-1
 3588,
*Elset, elset=_CP-65-interlocking-1_S4, internal, instance=interlocking-1
 3634,
*Elset, elset=_CP-65-interlocking-1_S1, internal, instance=interlocking-1
 4226,
*Surface, type=ELEMENT, name=CP-65-interlocking-1
_CP-65-interlocking-1_S3, S3
_CP-65-interlocking-1_S2, S2
_CP-65-interlocking-1_S4, S4
_CP-65-interlocking-1_S1, S1
*Elset, elset=_CP-66-interlocking-1_S3, internal, instance=interlocking-1
  202,  336,  374,  536, 1024, 1163, 1376, 1377, 1430, 1433, 1467, 1500, 1619, 1687, 1719, 1735
 1784, 1804, 1809, 1903, 2022, 2026, 2085, 2098, 2100, 2104, 2110, 2128, 2130, 2134, 2139, 2140
 2141, 2142, 2144
*Elset, elset=_CP-66-interlocking-1_S4, internal, instance=interlocking-1
  481, 1793, 1806, 2119
*Elset, elset=_CP-66-interlocking-1_S2, internal, instance=interlocking-1
 1591, 1879, 1881, 1893, 1996
*Elset, elset=_CP-66-interlocking-1_S1, internal, instance=interlocking-1
 1637, 1676, 2107, 2113, 2126
*Surface, type=ELEMENT, name=CP-66-interlocking-1
_CP-66-interlocking-1_S3, S3
_CP-66-interlocking-1_S4, S4
_CP-66-interlocking-1_S2, S2
_CP-66-interlocking-1_S1, S1
*Elset, elset=_CP-67-interlocking-1_S3, internal, instance=interlocking-1
 4661, 4876, 4878, 4981, 5101, 5132, 5312, 5738, 5789, 6144, 6281, 6298, 6308, 6312, 6322, 6342
 6390, 6409, 6413, 6417, 6424, 6435, 6453, 6459
*Elset, elset=_CP-67-interlocking-1_S4, internal, instance=interlocking-1
 5036, 6069, 6296, 6313
*Elset, elset=_CP-67-interlocking-1_S2, internal, instance=interlocking-1
 6336,
*Surface, type=ELEMENT, name=CP-67-interlocking-1
_CP-67-interlocking-1_S3, S3
_CP-67-interlocking-1_S4, S4
_CP-67-interlocking-1_S2, S2
*Elset, elset=_CP-68-interlocking-1_S3, internal, instance=interlocking-1
 2477, 3074, 3882, 3958, 4032, 4094, 4100, 4104, 4117, 4140, 4160, 4161, 4164, 4167, 4172, 4173
 4174, 4186, 4194, 4197, 4205, 4217, 4222, 4230, 4247, 4252, 4253
*Elset, elset=_CP-68-interlocking-1_S4, internal, instance=interlocking-1
 4138,
*Elset, elset=_CP-68-interlocking-1_S2, internal, instance=interlocking-1
 4165,
*Surface, type=ELEMENT, name=CP-68-interlocking-1
_CP-68-interlocking-1_S3, S3
_CP-68-interlocking-1_S4, S4
_CP-68-interlocking-1_S2, S2
*Elset, elset=_CP-69-interlocking-1_S3, internal, instance=interlocking-1
 4401, 4414, 4420, 4428, 4467, 4564, 4566, 4785, 4848, 4873, 4881, 4904, 4933, 4972, 4997, 5095
 5110, 5257, 5270, 5308, 5310, 5393, 5405, 5466, 5676, 5680, 5751, 5787, 5790, 5864, 5992, 6025
 6156, 6187, 6197, 6207, 6210, 6217, 6288, 6293, 6316, 6317, 6357, 6399, 6434, 6443, 6460
*Elset, elset=_CP-69-interlocking-1_S2, internal, instance=interlocking-1
 5759,
*Elset, elset=_CP-69-interlocking-1_S1, internal, instance=interlocking-1
 6364,
*Surface, type=ELEMENT, name=CP-69-interlocking-1
_CP-69-interlocking-1_S3, S3
_CP-69-interlocking-1_S2, S2
_CP-69-interlocking-1_S1, S1
*Elset, elset=_CP-70-interlocking-1_S3, internal, instance=interlocking-1
 2384, 2670, 2821, 2895, 2984, 3290, 3501, 3505, 3508, 3510, 3628, 3790, 3804, 3878, 3903, 3905
 3915, 3932, 3953, 4176, 4180, 4182, 4185, 4191, 4195, 4200, 4218, 4219, 4229, 4234, 4241, 4256
 4262, 4275
*Elset, elset=_CP-70-interlocking-1_S4, internal, instance=interlocking-1
 3159, 3998, 4015, 4199
*Elset, elset=_CP-70-interlocking-1_S2, internal, instance=interlocking-1
 3802, 4090, 4091, 4103, 4204, 4207, 4281, 4282
*Elset, elset=_CP-70-interlocking-1_S1, internal, instance=interlocking-1
 3887, 4196, 4245
*Surface, type=ELEMENT, name=CP-70-interlocking-1
_CP-70-interlocking-1_S3, S3
_CP-70-interlocking-1_S4, S4
_CP-70-interlocking-1_S2, S2
_CP-70-interlocking-1_S1, S1
*Elset, elset=_CP-71-interlocking-1_S3, internal, instance=interlocking-1
 6563, 6688, 6721, 6861, 6982, 7026, 7108, 7133, 7190, 7690, 7711, 7928, 8381, 8435, 8442, 8478
 8480, 8481, 8502, 8558, 8574, 8602, 8614, 8624
*Elset, elset=_CP-71-interlocking-1_S4, internal, instance=interlocking-1
 7818, 8306, 8460, 8474
*Elset, elset=_CP-71-interlocking-1_S2, internal, instance=interlocking-1
 8409,
*Surface, type=ELEMENT, name=CP-71-interlocking-1
_CP-71-interlocking-1_S3, S3
_CP-71-interlocking-1_S4, S4
_CP-71-interlocking-1_S2, S2
*Elset, elset=_CP-72-interlocking-1_S3, internal, instance=interlocking-1
 6069, 6226, 6247, 6253, 6255, 6271, 6273, 6275, 6276, 6296, 6299, 6313, 6319, 6320, 6321, 6323
 6328, 6334, 6336, 6337, 6339, 6391, 6392, 6394, 6412, 6467, 6473, 6477
*Elset, elset=_CP-72-interlocking-1_S2, internal, instance=interlocking-1
 6304,
*Surface, type=ELEMENT, name=CP-72-interlocking-1
_CP-72-interlocking-1_S3, S3
_CP-72-interlocking-1_S2, S2
*Elset, elset=_CP-73-interlocking-1_S3, internal, instance=interlocking-1
 6483, 6512, 6548, 6642, 6675, 6709, 6737, 6763, 6997, 7021, 7065, 7089, 7123, 7129, 7246, 7270
 7293, 7406, 7425, 7589, 7598, 7808, 7888, 7889, 7899, 8002, 8051, 8088, 8116, 8134, 8331, 8355
 8410, 8443, 8446, 8449, 8450, 8457, 8512, 8564, 8569, 8575, 8580, 8593, 8596
*Elset, elset=_CP-73-interlocking-1_S4, internal, instance=interlocking-1
 7185, 8322
*Elset, elset=_CP-73-interlocking-1_S1, internal, instance=interlocking-1
 7307, 8526
*Surface, type=ELEMENT, name=CP-73-interlocking-1
_CP-73-interlocking-1_S3, S3
_CP-73-interlocking-1_S4, S4
_CP-73-interlocking-1_S1, S1
*Elset, elset=_CP-74-interlocking-1_S1, internal, instance=interlocking-1
 4893, 6022, 6027, 6354, 6356
*Elset, elset=_CP-74-interlocking-1_S3, internal, instance=interlocking-1
 4944, 5271, 5573, 5637, 5658, 5689, 5692, 5695, 5943, 5980, 5984, 6052, 6056, 6071, 6078, 6117
 6192, 6244, 6266, 6272, 6326, 6332, 6341, 6360, 6371, 6380, 6382, 6383, 6393, 6395, 6405, 6418
 6420, 6466
*Elset, elset=_CP-74-interlocking-1_S4, internal, instance=interlocking-1
 4946, 6140, 6155, 6363
*Elset, elset=_CP-74-interlocking-1_S2, internal, instance=interlocking-1
 5773, 6229, 6231, 6347, 6439, 6448
*Surface, type=ELEMENT, name=CP-74-interlocking-1
_CP-74-interlocking-1_S1, S1
_CP-74-interlocking-1_S3, S3
_CP-74-interlocking-1_S4, S4
_CP-74-interlocking-1_S2, S2
*Elset, elset=_Surf-114_S3, internal, instance=interlocking-1
  120,  528,  634,  688,  987,  991, 1033, 1122, 1425, 1463, 1566, 1924, 1983, 1997, 2015, 2036
 2044, 2056, 2069, 2072, 2418, 2547, 2820, 2949, 3003, 3124, 3128, 3250, 3251, 3458, 3553, 3821
 4096, 4135, 4143, 4169, 4260, 4265, 4280, 4300, 4541, 5193, 5315, 5318, 5406, 5686, 5749, 5750
 5893, 6236, 6263, 6265, 6267, 6285, 6289, 6300, 6368, 6408, 6421, 6425, 6468, 6671, 7343, 7427
 7430, 7433, 7474, 7550, 7647, 7681, 7887, 7903, 8367, 8384, 8385, 8395, 8400, 8429, 8439, 8537
 8587, 8612
*Elset, elset=_Surf-114_S1, internal, instance=interlocking-1
  882, 2088, 4296, 4876, 6328, 6424, 6435, 6563, 8386, 8484, 8602
*Elset, elset=_Surf-114_S4, internal, instance=interlocking-1
 1300, 2004, 4100, 4277, 6273, 6413, 8574
*Elset, elset=_Surf-114_S2, internal, instance=interlocking-1
 1565, 1900, 1979, 2058, 2078, 2562, 4099, 4153, 4172, 4186, 4194, 6323, 6334, 8458, 8495, 8614
*Surface, type=ELEMENT, name=Surf-114
_Surf-114_S3, S3
_Surf-114_S1, S1
_Surf-114_S4, S4
_Surf-114_S2, S2
*Rigid Body, ref node=f1.frame-RefPt_, elset=f1.frame
*End Assembly
** 
** MATERIALS
** 
*Material, name=high-strength
*Elastic
 2e+12, 0.3
** 
** INTERACTION PROPERTIES
** 
*Surface Interaction, name=IntProp-1
1.,
*Friction
0.,
*Surface Behavior, pressure-overclosure=HARD
** 
** INTERACTIONS
** 
** Interaction: CP-3-f1-interlocking-1
*Contact Pair, interaction=IntProp-1, type=SURFACE TO SURFACE
CP-39-interlocking-1, CP-25-f1
** Interaction: CP-4-f1-interlocking-1
*Contact Pair, interaction=IntProp-1, type=SURFACE TO SURFACE
CP-40-interlocking-1, CP-26-f1
** Interaction: CP-5-f1-interlocking-1
*Contact Pair, interaction=IntProp-1, type=SURFACE TO SURFACE
CP-41-interlocking-1, CP-27-f1
** Interaction: CP-6-f1-interlocking-1
*Contact Pair, interaction=IntProp-1, type=SURFACE TO SURFACE
CP-42-interlocking-1, CP-28-f1
** Interaction: CP-7-f1-interlocking-1
*Contact Pair, interaction=IntProp-1, type=SURFACE TO SURFACE
CP-43-interlocking-1, CP-29-f1
** Interaction: CP-8-f1-interlocking-1
*Contact Pair, interaction=IntProp-1, type=SURFACE TO SURFACE
CP-44-interlocking-1, CP-30-f1
** Interaction: CP-9-f1-interlocking-1
*Contact Pair, interaction=IntProp-1, type=SURFACE TO SURFACE
CP-45-interlocking-1, CP-31-f1
** Interaction: CP-10-f1-interlocking-1
*Contact Pair, interaction=IntProp-1, type=SURFACE TO SURFACE
CP-46-interlocking-1, CP-32-f1
** Interaction: CP-11-f1-interlocking-1
*Contact Pair, interaction=IntProp-1, type=SURFACE TO SURFACE
CP-47-interlocking-1, CP-33-f1
** Interaction: CP-12-f1-interlocking-1
*Contact Pair, interaction=IntProp-1, type=SURFACE TO SURFACE
CP-48-interlocking-1, CP-34-f1
** Interaction: CP-13-f1-interlocking-1
*Contact Pair, interaction=IntProp-1, type=SURFACE TO SURFACE
CP-49-interlocking-1, CP-35-f1
** Interaction: CP-14-f1-interlocking-1
*Contact Pair, interaction=IntProp-1, type=SURFACE TO SURFACE
CP-50-interlocking-1, CP-36-f1
** Interaction: CP-15-f1-interlocking-1
*Contact Pair, interaction=IntProp-1, type=SURFACE TO SURFACE
CP-51-interlocking-1, CP-37-f1
** Interaction: CP-16-f1-interlocking-1
*Contact Pair, interaction=IntProp-1, type=SURFACE TO SURFACE
CP-52-interlocking-1, CP-38-f1
** Interaction: CP-17-f1-interlocking-1
*Contact Pair, interaction=IntProp-1, type=SURFACE TO SURFACE
CP-53-interlocking-1, CP-39-f1
** Interaction: CP-18-f1-interlocking-1
*Contact Pair, interaction=IntProp-1, type=SURFACE TO SURFACE
CP-54-interlocking-1, CP-40-f1
** Interaction: CP-19-f1-interlocking-1
*Contact Pair, interaction=IntProp-1, type=SURFACE TO SURFACE
CP-55-interlocking-1, CP-41-f1
** Interaction: CP-20-f1-interlocking-1
*Contact Pair, interaction=IntProp-1, type=SURFACE TO SURFACE
CP-56-interlocking-1, CP-42-f1
** Interaction: CP-21-f1-interlocking-1
*Contact Pair, interaction=IntProp-1, type=SURFACE TO SURFACE
CP-57-interlocking-1, CP-43-f1
** Interaction: CP-22-f1-interlocking-1
*Contact Pair, interaction=IntProp-1, type=SURFACE TO SURFACE
CP-58-interlocking-1, CP-44-f1
** Interaction: CP-23-interlocking-1-interlocking-1
*Contact Pair, interaction=IntProp-1, type=SURFACE TO SURFACE
CP-60-interlocking-1, CP-59-interlocking-1
** Interaction: CP-24-interlocking-1-interlocking-1
*Contact Pair, interaction=IntProp-1, type=SURFACE TO SURFACE
CP-62-interlocking-1, CP-61-interlocking-1
** Interaction: CP-25-interlocking-1-interlocking-1
*Contact Pair, interaction=IntProp-1, type=SURFACE TO SURFACE
CP-64-interlocking-1, CP-63-interlocking-1
** Interaction: CP-26-interlocking-1-interlocking-1
*Contact Pair, interaction=IntProp-1, type=SURFACE TO SURFACE
CP-66-interlocking-1, CP-65-interlocking-1
** Interaction: CP-27-interlocking-1-interlocking-1
*Contact Pair, interaction=IntProp-1, type=SURFACE TO SURFACE
CP-68-interlocking-1, CP-67-interlocking-1
** Interaction: CP-28-interlocking-1-interlocking-1
*Contact Pair, interaction=IntProp-1, type=SURFACE TO SURFACE
CP-70-interlocking-1, CP-69-interlocking-1
** Interaction: CP-29-interlocking-1-interlocking-1
*Contact Pair, interaction=IntProp-1, type=SURFACE TO SURFACE
CP-72-interlocking-1, CP-71-interlocking-1
** Interaction: CP-30-interlocking-1-interlocking-1
*Contact Pair, interaction=IntProp-1, type=SURFACE TO SURFACE
CP-74-interlocking-1, CP-73-interlocking-1
** ----------------------------------------------------------------
** 
** STEP: Step-1
** 
*Step, name=Step-1, nlgeom=NO
*Static
1., 1., 1e-05, 1.
** 
** BOUNDARY CONDITIONS
** 
** Name: BC-1 Type: Symmetry/Antisymmetry/Encastre
*Boundary
Set-1, ENCASTRE
** 
** LOADS
** 
** Name: Load-1   Type: Pressure
*Dsload
Surf-114, P, 100.
** 
** OUTPUT REQUESTS
** 
*Restart, write, frequency=0
** 
** FIELD OUTPUT: F-Output-1
** 
*Output, field, variable=PRESELECT
** 
** HISTORY OUTPUT: H-Output-1
** 
*Output, history, variable=PRESELECT
*End Step
