*Heading
** Job name: i1-e4 Model name: i1
** Generated by: Abaqus/CAE 2023
*Preprint, echo=NO, model=NO, history=NO, contact=NO
**
** PARTS
**
*Part, name=frame
*Node
      1,          11.,           7.,   1.41421354
      2,          10.,           6.,           0.
      3,          10.,           6.,   1.41421354
      4,          10.,           8.,           0.
      5,           9.,           9.,    1.4142133
      6,          10.,           8.,   1.41421354
      7,           9.,           7.,    1.4142133
      8,           8.,           8.,    1.4142133
      9,           8.,           6.,           0.
     10,           8.,           8.,           0.
     11,           8.,           6.,   1.41421342
     12,           7.,           7.,    1.4142133
     13,           7.,           5.,    1.4142133
     14,           6.,           6.,   1.41421342
     15,           6.,           8.,           0.
     16,           6.,           6.,           0.
     17,           7.,           9.,    1.4142133
     18,           6.,          10.,           0.
     19,           8.,          10.,           0.
     20,           6.,          10.,   1.41421354
** ... 9156 like lines cut
*Element, type=R3D3
1, 2905, 2904, 2903
2, 2902,  149,  150
3, 2906, 2898, 2897
22, 2928, 2930, 2922
54, 2936, 2932, 2939
73, 2948,  185,  186
93, 2963, 2955, 2954
94, 2962, 2961, 2960
95, 2959,  197,  198
114, 2971,  192,  191
134, 2984,  205,  206
154, 2998, 2997, 2996
155, 2999, 2992, 2990
156, 2994,  200,  199
175, 3021, 3018, 3003
176, 3006, 3023, 3010
177, 3019, 3017, 3015
178, 3015, 3007, 3005
212, 3032, 3030, 3045
213, 3046, 3048, 3026
** ... 636 like lines cut
*Element, type=R3D4
 4, 2901, 2900,  147,  148
 5, 2901, 2908, 2899, 2900
 6,  156, 2899, 2907,  155
 7, 2907,  154,    3,  155
 8, 2901, 2906, 2897, 2908
 9,  151, 2902,  150,    2
10,  153,  154, 2907, 2897
11,  153, 2897, 2898,  152
12, 2902,  151,  152, 2898
13, 2904, 2899,  156,  157
14,  146, 2905, 2903,  145
15,  145, 2903,  158,    1
16, 2908, 2897, 2907, 2899
17,  148,  149, 2906, 2901
18, 2902, 2898, 2906,  149
19,  147, 2900, 2905,  146
20,  157,  158, 2903, 2904
21, 2899, 2904, 2905, 2900
23, 2909,  159,  160, 2910
24, 2914, 2915,  162,  163
** ... 9316 like lines cut
*Node
   9177,           9.,           9.,    1.4142133
*Nset, nset=frame-RefPt_, internal
9177, 
*Elset, elset=frame, generate
    1,  9992,     1
*End Part
**  
*Part, name=interlocking
*Node
      1,   2.00003028, -0.000169993014,           0.
      2, 0.000229986996,  -1.99996996,           0.
      3, 0.000229986996, -0.000169993,           0.
      4,   1.00012982,  -1.00006998,   1.41407216
      5, 0.00022998701, -0.000169992985,   1.41407216
      6,   1.00012994,  0.999729991,   1.41407216
      7,   2.00003004,  -1.99996984,           0.
      8,   2.00003004, -0.000169993,   1.41407216
      9,    2.9999299,  -1.00006998,   1.41407216
     10,   2.00003004,  -1.99996996,   1.41407216
     11, -0.000169993014,  -2.00003028,           0.
     12,  -1.99996996, -0.000229986996,           0.
     13, -0.000169993, -0.000229986996,           0.
     14,  -1.00006998,  -1.00012982,   1.41407216
     15, -0.000169992985, -0.00022998701,   1.41407216
     16,  0.999729991,  -1.00012994,   1.41407216
     17,  -1.99996984,  -2.00003004,           0.
     18, -0.000169993,  -2.00003004,   1.41407216
     19,  -1.00006998,   -2.9999299,   1.41407216
     20,  -1.99996996,  -2.00003004,   1.41407216
** ... 14075 like lines cut
*Element, type=C3D10
   1, 1213, 1214, 1215, 1216, 2122, 2121, 2120, 2124, 2123, 2125
   2, 1215, 1213, 1217, 1214, 2120, 2127, 2126, 2121, 2122, 2128
   3, 1216, 1218, 1219, 1215, 2131, 2130, 2129, 2125, 2132, 2133
   4, 1218, 1213, 1216, 1220, 2134, 2124, 2131, 2136, 2135, 2137
   5, 1216, 1221, 1214, 1222, 2139, 2138, 2123, 2141, 2140, 2142
   6, 1213, 1223, 1221, 1224, 2145, 2144, 2143, 2147, 2146, 2148
   7, 1213, 1223, 1217, 1214, 2145, 2149, 2127, 2122, 2150, 2128
   8, 1213, 1216, 1221, 1214, 2124, 2139, 2143, 2122, 2123, 2138
   9, 1216, 1213, 1221, 1220, 2124, 2143, 2139, 2137, 2135, 2151
  10, 1225, 1226, 1227, 1228, 2154, 2153, 2152, 2156, 2155, 2157
  11, 1229, 1225, 1228, 1230, 2159, 2156, 2158, 2161, 2160, 2162
  12, 1225, 1231, 1228, 1227, 2164, 2163, 2156, 2152, 2165, 2157
  13, 1225, 1232, 1233, 1234, 2168, 2167, 2166, 2170, 2169, 2171
  14, 1225, 1228, 1231, 1229, 2156, 2163, 2164, 2159, 2158, 2172
  15, 1235, 1236, 1237, 1238, 2175, 2174, 2173, 2177, 2176, 2178
  16, 1235, 1239, 1236, 1240, 2180, 2179, 2175, 2182, 2181, 2183
  17, 1235, 1241, 1242, 1243, 2186, 2185, 2184, 2188, 2187, 2189
  18,   48,  611, 1244,   49, 2192, 2191, 2190, 2194, 2193, 2195
  19,  684, 1238, 1235, 1243, 2197, 2177, 2196, 2199, 2198, 2188
  20, 1245, 1240,  702, 1246, 2202, 2201, 2200, 2204, 2203, 2205
** ... 8637 like lines cut
*Nset, nset=Set-1, generate
     1,  14095,      1
*Elset, elset=Set-1, generate
    1,  8657,     1
** Section: Section-1
*Solid Section, elset=Set-1, material=high-strength
,
*End Part
**  
**
** ASSEMBLY
**
*Assembly, name=Assembly
**  
*Instance, name=frame-1, part=frame
         -4.,          -4.,           0.
*End Instance
**  
*Instance, name=interlocking-1, part=interlocking
*End Instance
**  
*Nset, nset=Set-1, instance=frame-1, generate
    1,  9176,     1
*Elset, elset=Set-1, instance=frame-1, generate
    1,  9992,     1
*Elset, elset=_Surf-73_S3, internal, instance=interlocking-1
  842, 1045, 1046, 1159, 1311, 1317, 1452, 1706, 1895, 2000, 2022, 2023, 2024, 2033, 2035, 2038
 2040, 2058, 2068, 2234, 2438, 2549, 2710, 3061, 3142, 3299, 3597, 3598, 3603, 3631, 4100, 4101
 4107, 4131, 4152, 4239, 4281, 4677, 5321, 5379, 5380, 5552, 5636, 5720, 5813, 6152, 6278, 6310
 6311, 6312, 6323, 6326, 6327, 6404, 6598, 6710, 7153, 7330, 7543, 7544, 7885, 7976, 7977, 8150
 8404, 8423, 8513, 8514, 8517, 8545, 8557, 8631
*Elset, elset=_Surf-73_S1, internal, instance=interlocking-1
 1044, 1971, 3633, 4103, 4200, 5378, 5481, 6321, 6401, 7337, 7594, 8474, 8524, 8590
*Elset, elset=_Surf-73_S4, internal, instance=interlocking-1
 1917, 1957, 2029, 2478, 4102, 4144, 4275, 4614, 6262, 6314, 6392, 6680, 8419, 8552
*Elset, elset=_Surf-73_S2, internal, instance=interlocking-1
 2027, 2053, 2093, 2100, 2178, 2463, 4185, 4197, 4313, 6250, 6286, 6390, 6447, 7926, 8594, 8608
*Surface, type=ELEMENT, name=Surf-73
_Surf-73_S3, S3
_Surf-73_S1, S1
_Surf-73_S4, S4
_Surf-73_S2, S2
*Rigid Body, ref node=frame-1.frame-RefPt_, elset=frame-1.frame
*End Assembly
** 
** MATERIALS
** 
*Material, name=high-strength
*Density
1.,
*Elastic
 2e+12, 0.3
** 
** INTERACTION PROPERTIES
** 
*Surface Interaction, name=IntProp-1
*Friction
0.,
*Surface Behavior, pressure-overclosure=HARD
** ----------------------------------------------------------------
** 
** STEP: Step-1
** 
*Step, name=Step-1, nlgeom=YES
*Dynamic, Explicit
, 1.
*Bulk Viscosity
0.06, 1.2
** 
** BOUNDARY CONDITIONS
** 
** Name: BC-1 Type: Symmetry/Antisymmetry/Encastre
*Boundary
Set-1, ENCASTRE
** 
** LOADS
** 
** Name: Load-1   Type: Pressure
*Dsload
Surf-73, P, 100.
** 
** OUTPUT REQUESTS
** 
*Restart, write, number interval=1, time marks=NO
** 
** FIELD OUTPUT: F-Output-1
** 
*Output, field, variable=PRESELECT
** 
** HISTORY OUTPUT: H-Output-1
** 
*Output, history, variable=PRESELECT, frequency=1
*End Step
