*Heading
** Job name: interlocking-1k Model name: interlocking-1
** Generated by: Abaqus/CAE 2023
*Preprint, echo=NO, model=NO, history=NO, contact=NO
**
** PARTS
**
*Part, name=frame
*Node
      1,   6.30000019,   6.30000019,           0.
      2,   4.29999971,   6.29999971,           0.
      3,   5.30000019,   5.30000019,   1.41421354
      4,   6.30000067,   6.30000067,   1.41421354
      5,   5.29999971,   7.29999971,   1.41421342
      6,   6.30000019,   8.30000019,           0.
      7,   4.30000019,   8.30000019,           0.
      8,   4.30000019,   8.30000019,   1.41421354
      9,   3.29999995,   7.30000019,   1.41421354
     10,   4.30000019,   6.30000019,   1.41421354
     11,   6.30000019,   4.19999981,           0.
     12,   4.29999971,   4.20000029,           0.
     13,   5.30000019,   3.20000005,   1.41421354
     14,   6.30000067,   4.19999981,   1.41421354
     15,   5.29999971,   5.20000029,   1.41421342
     16,   6.30000019,   6.19999981,           0.
     17,   4.30000019,   6.19999981,           0.
     18,   4.30000019,   6.19999933,   1.41421354
     19,   3.29999995,   5.19999981,   1.41421354
     20,   4.30000019,   4.19999981,   1.41421354
** ... 4650 like lines cut
*Element, type=R3D3
1, 1664, 1666, 1658
33, 1673,  143,  144
53, 1687, 1686, 1685
54, 1688, 1679, 1680
55, 1684,  151,  152
74, 1710, 1712, 1704
106, 1734, 1725, 1732
138, 1741,  185,  186
158, 1755, 1754, 1753
159, 1752,  193,  194
160, 1756, 1748, 1747
179, 1779, 1778, 1773
210, 1789, 1780, 1781
211, 1788, 1787, 1785
212, 1786,  128,  127
231, 1798,  219,  220
251, 1809,  218,  217
271, 1825, 1816, 1817
272, 1824, 1823, 1822
273, 1821,  237,  238
** ... 274 like lines cut
*Element, type=R3D4
 2,  135, 1653, 1651,  134
 3, 1661, 1652, 1664, 1658
 4,  129, 1646, 1647,  128
 5,  128, 1647, 1648,  127
 6,  127, 1648,  126,    2
 7, 1657, 1647, 1646, 1661
 8, 1648, 1649,  125,  126
 9, 1645, 1652,  131,  132
10,  133, 1645,  132,    3
11, 1659, 1658, 1666, 1665
12, 1662, 1654,  122,  123
13, 1662, 1665, 1663, 1654
14,  122, 1654, 1656,  121
15,  121, 1656,  138,    1
16, 1645,  133,  134, 1651
17, 1649, 1650,  124,  125
18,  129,  130, 1661, 1646
19, 1649, 1648, 1647, 1657
20, 1650, 1649, 1657, 1659
21, 1654, 1663, 1660, 1656
** ... 4479 like lines cut
*Node
   4671,   4.80000019,   6.80000019,   1.41421342
*Nset, nset=frame-RefPt_, internal
4671, 
*Elset, elset=frame, generate
    1,  4793,     1
*End Part
**  
*Part, name=interlocking
*Node
      1,   2.20000005,   4.20000029,           0.
      2,   4.19999981,   6.19999981,           0.
      3,   4.19999981,   4.19999981,           0.
      4,   3.20000029,   5.20000029,   1.41421342
      5,   4.19999981,   4.19999981,   1.41421354
      6,   3.20000005,   3.20000005,   1.41421354
      7,   2.20000005,   6.19999981,           0.
      8,   2.20000005,   4.19999981,   1.41421354
      9,   1.20000005,   5.19999981,   1.41421354
     10,   2.20000005,   6.19999933,   1.41421354
     11,   2.20000005,   2.10000014,           0.
     12,   4.19999981,    4.0999999,           0.
     13,   4.19999981,    2.0999999,           0.
     14,   3.20000029,   3.10000014,   1.41421342
     15,   4.19999981,    2.0999999,   1.41421354
     16,   3.20000005,   1.10000002,   1.41421354
     17,   2.20000005,    4.0999999,           0.
     18,   2.20000005,    2.0999999,   1.41421354
     19,   1.20000005,    3.0999999,   1.41421354
     20,   2.20000005,    4.0999999,   1.41421354
** ... 14046 like lines cut
*Element, type=C3D10
   1, 1213, 1214, 1215, 1216, 2119, 2118, 2117, 2121, 2120, 2122
   2, 1213, 1217, 1218, 1219, 2125, 2124, 2123, 2127, 2126, 2128
   3, 1213, 1218, 1215, 1220, 2123, 2129, 2117, 2131, 2130, 2132
   4, 1213, 1221, 1222, 1223, 2135, 2134, 2133, 2137, 2136, 2138
   5, 1223, 1213, 1224, 1222, 2137, 2140, 2139, 2138, 2133, 2141
   6, 1213, 1221, 1223, 1219, 2135, 2136, 2137, 2127, 2142, 2143
   7, 1213, 1220, 1215, 1225, 2131, 2132, 2117, 2145, 2144, 2146
   8, 1226, 1227, 1228, 1229, 2149, 2148, 2147, 2151, 2150, 2152
   9, 1213, 1225, 1230, 1224, 2145, 2154, 2153, 2140, 2155, 2156
  10, 1231, 1232, 1233, 1234, 2159, 2158, 2157, 2161, 2160, 2162
  11, 1213, 1217, 1231, 1214, 2125, 2164, 2163, 2119, 2165, 2166
  12, 1214, 1231, 1235, 1236, 2166, 2168, 2167, 2170, 2169, 2171
  13, 1231, 1237, 1234, 1238, 2173, 2172, 2161, 2175, 2174, 2176
  14, 1231, 1223, 1232, 1239, 2178, 2177, 2159, 2180, 2179, 2181
  15, 1231, 1237, 1232, 1234, 2173, 2182, 2159, 2161, 2172, 2160
  16, 1231, 1232, 1240, 1239, 2159, 2184, 2183, 2180, 2181, 2185
  17, 1241, 1234, 1242, 1243, 2188, 2187, 2186, 2190, 2189, 2191
  18, 1213, 1241, 1231, 1223, 2193, 2192, 2163, 2137, 2194, 2178
  19, 1241, 1222, 1223, 1224, 2195, 2138, 2194, 2196, 2141, 2139
  20, 1231, 1232, 1223, 1244, 2159, 2177, 2178, 2198, 2197, 2199
** ... 8614 like lines cut
*Nset, nset=Set-1, generate
     1,  14066,      1
*Elset, elset=Set-1, generate
    1,  8634,     1
** Section: Section-1
*Solid Section, elset=Set-1, material=high-strength
,
*End Part
**  
**
** ASSEMBLY
**
*Assembly, name=Assembly
**  
*Instance, name=f1, part=frame
*End Instance
**  
*Instance, name=interlocking-1, part=interlocking
*End Instance
**  
*Nset, nset=Set-1, instance=f1, generate
    1,  4671,     1
*Elset, elset=Set-1, instance=f1, generate
    1,  4793,     1
*Elset, elset=_CP-39-interlocking-1_S3, internal, instance=interlocking-1
  355,  785,  805, 1105, 1294, 1302, 1328, 1329, 1471, 1666, 1709, 1777, 1778, 1781, 1872, 1882
 1884, 1889, 1994, 2073, 2076, 2078, 2083, 2084, 2096, 2103, 2109, 2110, 2112, 2114, 2117, 2126
 2129, 2154
*Elset, elset=_CP-39-interlocking-1_S1, internal, instance=interlocking-1
  609, 1643, 1648
*Elset, elset=_CP-39-interlocking-1_S2, internal, instance=interlocking-1
 1689, 1729, 1770, 1850, 2088, 2148, 2150, 2152
*Elset, elset=_CP-39-interlocking-1_S4, internal, instance=interlocking-1
 1773, 1787, 2081, 2086
*Surface, type=ELEMENT, name=CP-39-interlocking-1
_CP-39-interlocking-1_S3, S3
_CP-39-interlocking-1_S1, S1
_CP-39-interlocking-1_S2, S2
_CP-39-interlocking-1_S4, S4
*Elset, elset=_CP-40-interlocking-1_S3, internal, instance=interlocking-1
 1718, 1801, 1867, 1876, 1888, 1894, 1907, 1915, 1918, 1920, 1940, 1959, 1962, 1985, 1995, 2011
 2012, 2014, 2021, 2051, 2058, 2060, 2063, 2064, 2067, 2107
*Elset, elset=_CP-40-interlocking-1_S4, internal, instance=interlocking-1
 1880, 2032
*Elset, elset=_CP-40-interlocking-1_S2, internal, instance=interlocking-1
 2124,
*Surface, type=ELEMENT, name=CP-40-interlocking-1
_CP-40-interlocking-1_S3, S3
_CP-40-interlocking-1_S4, S4
_CP-40-interlocking-1_S2, S2
*Elset, elset=_CP-41-interlocking-1_S3, internal, instance=interlocking-1
  281,  529,  532,  874, 1220, 1713, 1792, 1970, 1979, 2024, 2030, 2038, 2049, 2053, 2061, 2080
 2115, 2120, 2127, 2141, 2160, 2164
*Elset, elset=_CP-41-interlocking-1_S4, internal, instance=interlocking-1
  514, 1824, 1867, 2162
*Elset, elset=_CP-41-interlocking-1_S2, internal, instance=interlocking-1
 1940, 1962, 2087
*Surface, type=ELEMENT, name=CP-41-interlocking-1
_CP-41-interlocking-1_S3, S3
_CP-41-interlocking-1_S4, S4
_CP-41-interlocking-1_S2, S2
*Elset, elset=_CP-42-interlocking-1_S3, internal, instance=interlocking-1
 2576, 2655, 3060, 3253, 3315, 3548, 3559, 3562, 3646, 3861, 3874, 3887, 3900, 3949, 3958, 4009
 4051, 4061, 4097, 4228, 4235, 4242, 4250, 4258, 4262, 4266, 4270, 4276, 4278, 4279, 4283, 4284
 4285, 4318
*Elset, elset=_CP-42-interlocking-1_S4, internal, instance=interlocking-1
 3737, 3761, 3763, 3811, 3842, 3945, 4239, 4240, 4319
*Elset, elset=_CP-42-interlocking-1_S2, internal, instance=interlocking-1
 3835, 4001, 4249
*Elset, elset=_CP-42-interlocking-1_S1, internal, instance=interlocking-1
 4026, 4027, 4248
*Surface, type=ELEMENT, name=CP-42-interlocking-1
_CP-42-interlocking-1_S3, S3
_CP-42-interlocking-1_S4, S4
_CP-42-interlocking-1_S2, S2
_CP-42-interlocking-1_S1, S1
*Elset, elset=_CP-43-interlocking-1_S4, internal, instance=interlocking-1
 2786, 4182
*Elset, elset=_CP-43-interlocking-1_S1, internal, instance=interlocking-1
 2792,
*Elset, elset=_CP-43-interlocking-1_S3, internal, instance=interlocking-1
 3265, 3710, 3757, 3841, 4023, 4045, 4058, 4073, 4093, 4099, 4101, 4112, 4113, 4128, 4132, 4135
 4136, 4144, 4150, 4162, 4179, 4187, 4196, 4219, 4222, 4299
*Surface, type=ELEMENT, name=CP-43-interlocking-1
_CP-43-interlocking-1_S4, S4
_CP-43-interlocking-1_S1, S1
_CP-43-interlocking-1_S3, S3
*Elset, elset=_CP-44-interlocking-1_S3, internal, instance=interlocking-1
 2263, 2723, 2838, 2852, 3033, 3233, 3558, 3844, 3943, 3959, 3963, 3975, 3993, 4193, 4203, 4204
 4213, 4224, 4256, 4267, 4275, 4298, 4303, 4308
*Elset, elset=_CP-44-interlocking-1_S4, internal, instance=interlocking-1
 2792, 4299
*Elset, elset=_CP-44-interlocking-1_S1, internal, instance=interlocking-1
 3265, 4132
*Elset, elset=_CP-44-interlocking-1_S2, internal, instance=interlocking-1
 4179,
*Surface, type=ELEMENT, name=CP-44-interlocking-1
_CP-44-interlocking-1_S3, S3
_CP-44-interlocking-1_S4, S4
_CP-44-interlocking-1_S2, S2
_CP-44-interlocking-1_S1, S1
*Elset, elset=_CP-45-interlocking-1_S3, internal, instance=interlocking-1
   76,  197,  501,  636, 1090, 1211, 1277, 1313, 1361, 1362, 1364, 1371, 1378, 1383, 1466, 1467
 1626, 1640, 1684, 1707, 1734, 1752, 1753, 1759, 1794, 1803, 1814, 1861, 1885, 2071, 2113, 2122
*Elset, elset=_CP-45-interlocking-1_S4, internal, instance=interlocking-1
  378, 1777, 1994
*Elset, elset=_CP-45-interlocking-1_S2, internal, instance=interlocking-1
  785, 1291, 1394, 1400, 1710, 1791, 1833, 1889, 2140, 2166
*Elset, elset=_CP-45-interlocking-1_S1, internal, instance=interlocking-1
  871, 1709, 1715, 1721
*Surface, type=ELEMENT, name=CP-45-interlocking-1
_CP-45-interlocking-1_S3, S3
_CP-45-interlocking-1_S4, S4
_CP-45-interlocking-1_S2, S2
_CP-45-interlocking-1_S1, S1
*Elset, elset=_CP-46-interlocking-1_S3, internal, instance=interlocking-1
  561, 1259, 1351, 1424, 1430, 1496, 1531, 1532, 1534, 1542, 1543, 1555, 1559, 1566, 1574, 1576
 1579, 1588, 1638, 1692, 1696, 1904, 1905
*Elset, elset=_CP-46-interlocking-1_S4, internal, instance=interlocking-1
 1535, 1541, 1575, 1751
*Elset, elset=_CP-46-interlocking-1_S1, internal, instance=interlocking-1
 1903,
*Elset, elset=_CP-46-interlocking-1_S2, internal, instance=interlocking-1
 2134,
*Surface, type=ELEMENT, name=CP-46-interlocking-1
_CP-46-interlocking-1_S3, S3
_CP-46-interlocking-1_S4, S4
_CP-46-interlocking-1_S2, S2
_CP-46-interlocking-1_S1, S1
*Elset, elset=_CP-47-interlocking-1_S3, internal, instance=interlocking-1
 2198, 2435, 2474, 2521, 2720, 2783, 2791, 2821, 2824, 2862, 2870, 2928, 2958, 2959, 3189, 3334
 3488, 3516, 3518, 3541, 3589, 3612, 3628, 3647, 3797, 3813, 3824, 3877, 3896, 4085, 4092, 4130
 4141, 4153, 4181, 4185, 4189, 4210, 4212, 4214, 4221, 4233, 4307, 4311, 4317
*Elset, elset=_CP-47-interlocking-1_S4, internal, instance=interlocking-1
 3034,
*Elset, elset=_CP-47-interlocking-1_S2, internal, instance=interlocking-1
 3590, 4244
*Elset, elset=_CP-47-interlocking-1_S1, internal, instance=interlocking-1
 4157,
*Surface, type=ELEMENT, name=CP-47-interlocking-1
_CP-47-interlocking-1_S3, S3
_CP-47-interlocking-1_S4, S4
_CP-47-interlocking-1_S2, S2
_CP-47-interlocking-1_S1, S1
*Elset, elset=_CP-48-interlocking-1_S3, internal, instance=interlocking-1
 2304, 2335, 2593, 2863, 3012, 3149, 3199, 3291, 3316, 3321, 3371, 3436, 3445, 3500, 3593, 3660
 3682, 3684, 3685, 3686, 3687, 3690, 3699, 3741, 3772, 3781, 3782, 3794, 3796, 3812, 3836, 3845
 3986, 4035, 4064, 4072, 4074, 4080, 4082, 4090, 4104, 4106, 4109, 4111, 4115, 4118, 4124, 4131
 4133, 4148, 4152, 4186, 4243
*Elset, elset=_CP-48-interlocking-1_S1, internal, instance=interlocking-1
 3454, 4169
*Elset, elset=_CP-48-interlocking-1_S2, internal, instance=interlocking-1
 3774, 4094
*Elset, elset=_CP-48-interlocking-1_S4, internal, instance=interlocking-1
 4126,
*Surface, type=ELEMENT, name=CP-48-interlocking-1
_CP-48-interlocking-1_S3, S3
_CP-48-interlocking-1_S1, S1
_CP-48-interlocking-1_S2, S2
_CP-48-interlocking-1_S4, S4
*Elset, elset=_CP-49-interlocking-1_S3, internal, instance=interlocking-1
 6823, 6986, 7047, 7172, 7315, 7370, 7373, 7422, 7614, 8179, 8217, 8291, 8310, 8454, 8494, 8507
 8558, 8560, 8565, 8585, 8621, 8622
*Elset, elset=_CP-49-interlocking-1_S2, internal, instance=interlocking-1
 7088, 8467
*Elset, elset=_CP-49-interlocking-1_S4, internal, instance=interlocking-1
 7408, 8212, 8397
*Elset, elset=_CP-49-interlocking-1_S1, internal, instance=interlocking-1
 8480, 8490
*Surface, type=ELEMENT, name=CP-49-interlocking-1
_CP-49-interlocking-1_S3, S3
_CP-49-interlocking-1_S2, S2
_CP-49-interlocking-1_S4, S4
_CP-49-interlocking-1_S1, S1
*Elset, elset=_CP-50-interlocking-1_S3, internal, instance=interlocking-1
 4977, 5303, 5316, 5388, 5400, 5624, 5632, 5633, 5661, 5718, 5834, 5982, 5993, 5996, 6001, 6012
 6019, 6029, 6034, 6035, 6075, 6105, 6222, 6235, 6255, 6331, 6371, 6372, 6392, 6428, 6467
*Elset, elset=_CP-50-interlocking-1_S4, internal, instance=interlocking-1
 5092, 5939, 5994, 6304, 6399, 6413
*Elset, elset=_CP-50-interlocking-1_S1, internal, instance=interlocking-1
 5831, 5998, 6199, 6419
*Elset, elset=_CP-50-interlocking-1_S2, internal, instance=interlocking-1
 5985, 5991, 6011, 6018, 6082, 6406, 6408, 6462
*Surface, type=ELEMENT, name=CP-50-interlocking-1
_CP-50-interlocking-1_S3, S3
_CP-50-interlocking-1_S4, S4
_CP-50-interlocking-1_S2, S2
_CP-50-interlocking-1_S1, S1
*Elset, elset=_CP-51-interlocking-1_S3, internal, instance=interlocking-1
  116,  562,  788, 1492, 1516, 1518, 1533, 1537, 1538, 1539, 1541, 1546, 1549, 1551, 1552, 1558
 1560, 1564, 1567, 1575, 1587, 1600, 1751, 1763, 1784, 1898, 1900
*Elset, elset=_CP-51-interlocking-1_S4, internal, instance=interlocking-1
 649,
*Elset, elset=_CP-51-interlocking-1_S2, internal, instance=interlocking-1
 1903,
*Surface, type=ELEMENT, name=CP-51-interlocking-1
_CP-51-interlocking-1_S3, S3
_CP-51-interlocking-1_S4, S4
_CP-51-interlocking-1_S2, S2
*Elset, elset=_CP-52-interlocking-1_S3, internal, instance=interlocking-1
 4642, 4874, 4968, 5218, 5725, 5805, 5806, 5819, 5825, 5843, 5846, 5849, 5852, 5859, 5860, 5866
 5868, 5869, 5874, 5877, 5888, 5975, 6267, 6415
*Elset, elset=_CP-52-interlocking-1_S4, internal, instance=interlocking-1
 4928, 5858
*Elset, elset=_CP-52-interlocking-1_S2, internal, instance=interlocking-1
 5841, 6049
*Elset, elset=_CP-52-interlocking-1_S1, internal, instance=interlocking-1
 6092,
*Surface, type=ELEMENT, name=CP-52-interlocking-1
_CP-52-interlocking-1_S3, S3
_CP-52-interlocking-1_S4, S4
_CP-52-interlocking-1_S2, S2
_CP-52-interlocking-1_S1, S1
*Elset, elset=_CP-53-interlocking-1_S3, internal, instance=interlocking-1
 6512, 6591, 6595, 6607, 6668, 6684, 6732, 6818, 7018, 7055, 7084, 7108, 7226, 7248, 7257, 7300
 7430, 7473, 7507, 7530, 7637, 7696, 7717, 7799, 7842, 7927, 7942, 8072, 8091, 8113, 8373, 8399
 8405, 8410, 8427, 8441, 8455, 8466, 8470, 8478, 8530, 8534, 8556, 8573, 8581, 8588, 8596
*Elset, elset=_CP-53-interlocking-1_S4, internal, instance=interlocking-1
 6964,
*Elset, elset=_CP-53-interlocking-1_S1, internal, instance=interlocking-1
 8515,
*Surface, type=ELEMENT, name=CP-53-interlocking-1
_CP-53-interlocking-1_S3, S3
_CP-53-interlocking-1_S4, S4
_CP-53-interlocking-1_S1, S1
*Elset, elset=_CP-54-interlocking-1_S3, internal, instance=interlocking-1
 6583, 6766, 6960, 7087, 7093, 7121, 7130, 7186, 7472, 7509, 7535, 7848, 7894, 7935, 7965, 7976
 7982, 7985, 7991, 8057, 8058, 8067, 8070, 8073, 8074, 8081, 8084, 8098, 8114, 8121, 8130, 8312
 8334, 8375, 8377, 8381, 8387, 8389, 8390, 8396, 8402, 8415, 8428, 8429, 8431, 8446, 8458, 8481
 8489, 8597, 8623
*Elset, elset=_CP-54-interlocking-1_S1, internal, instance=interlocking-1
 7714,
*Elset, elset=_CP-54-interlocking-1_S2, internal, instance=interlocking-1
 7631, 8061, 8382, 8423
*Elset, elset=_CP-54-interlocking-1_S4, internal, instance=interlocking-1
 8077, 8471
*Surface, type=ELEMENT, name=CP-54-interlocking-1
_CP-54-interlocking-1_S3, S3
_CP-54-interlocking-1_S1, S1
_CP-54-interlocking-1_S2, S2
_CP-54-interlocking-1_S4, S4
*Elset, elset=_CP-55-interlocking-1_S3, internal, instance=interlocking-1
 4502, 4875, 4928, 5399, 5799, 5801, 5815, 5816, 5827, 5840, 5855, 5856, 5858, 5865, 5867, 5875
 5878, 5882, 5884, 5887, 5898, 5905, 6010, 6045, 6049, 6073, 6099
*Elset, elset=_CP-55-interlocking-1_S4, internal, instance=interlocking-1
 5973,
*Elset, elset=_CP-55-interlocking-1_S2, internal, instance=interlocking-1
 6092,
*Surface, type=ELEMENT, name=CP-55-interlocking-1
_CP-55-interlocking-1_S3, S3
_CP-55-interlocking-1_S4, S4
_CP-55-interlocking-1_S2, S2
*Elset, elset=_CP-56-interlocking-1_S3, internal, instance=interlocking-1
 6938, 7007, 7010, 7074, 7295, 7902, 7989, 7995, 8002, 8025, 8026, 8031, 8032, 8034, 8035, 8036
 8038, 8039, 8046, 8049, 8234, 8272, 8332, 8355, 8522
*Elset, elset=_CP-56-interlocking-1_S1, internal, instance=interlocking-1
 7115,
*Elset, elset=_CP-56-interlocking-1_S4, internal, instance=interlocking-1
 7390,
*Elset, elset=_CP-56-interlocking-1_S2, internal, instance=interlocking-1
 8018, 8048
*Surface, type=ELEMENT, name=CP-56-interlocking-1
_CP-56-interlocking-1_S3, S3
_CP-56-interlocking-1_S1, S1
_CP-56-interlocking-1_S4, S4
_CP-56-interlocking-1_S2, S2
*Elset, elset=_CP-57-interlocking-1_S3, internal, instance=interlocking-1
 4365, 4435, 4711, 4725, 4776, 4848, 4868, 4936, 4979, 5222, 5299, 5319, 5356, 5577, 5648, 5684
 5762, 5764, 5808, 5823, 5830, 5832, 5851, 5891, 5892, 5897, 5899, 5907, 5908, 5911, 5917, 5922
 5943, 5945, 5949, 5960, 5962, 6042, 6164, 6171, 6192, 6193, 6201, 6208, 6212, 6223, 6225, 6231
 6238, 6244, 6278, 6328, 6466
*Elset, elset=_CP-57-interlocking-1_S1, internal, instance=interlocking-1
 4908,
*Elset, elset=_CP-57-interlocking-1_S2, internal, instance=interlocking-1
 4640, 6218
*Elset, elset=_CP-57-interlocking-1_S4, internal, instance=interlocking-1
 6169, 6444
*Surface, type=ELEMENT, name=CP-57-interlocking-1
_CP-57-interlocking-1_S3, S3
_CP-57-interlocking-1_S1, S1
_CP-57-interlocking-1_S2, S2
_CP-57-interlocking-1_S4, S4
*Elset, elset=_CP-58-interlocking-1_S4, internal, instance=interlocking-1
 4523, 6124
*Elset, elset=_CP-58-interlocking-1_S3, internal, instance=interlocking-1
 4651, 5061, 5114, 5282, 5402, 5686, 5688, 5879, 5886, 5896, 5902, 5906, 5910, 5912, 5948, 5950
 5956, 5957, 5974, 6039, 6044, 6059, 6062, 6079, 6081, 6089, 6100, 6101, 6102, 6112, 6114, 6120
 6121, 6123, 6128, 6135, 6138, 6140, 6141, 6156, 6162, 6163, 6168, 6170, 6176, 6458
*Elset, elset=_CP-58-interlocking-1_S1, internal, instance=interlocking-1
 5429,
*Surface, type=ELEMENT, name=CP-58-interlocking-1
_CP-58-interlocking-1_S4, S4
_CP-58-interlocking-1_S3, S3
_CP-58-interlocking-1_S1, S1
*Elset, elset=_CP-59-interlocking-1_S3, internal, instance=interlocking-1
 6583, 6766, 6960, 7087, 7093, 7121, 7130, 7186, 7472, 7509, 7535, 7848, 7894, 7935, 7965, 7976
 7982, 7985, 7991, 8057, 8058, 8067, 8070, 8073, 8074, 8081, 8084, 8098, 8114, 8121, 8130, 8312
 8334, 8375, 8377, 8381, 8387, 8389, 8390, 8396, 8402, 8415, 8428, 8429, 8431, 8446, 8458, 8481
 8489, 8597, 8623
*Elset, elset=_CP-59-interlocking-1_S1, internal, instance=interlocking-1
 7714,
*Elset, elset=_CP-59-interlocking-1_S2, internal, instance=interlocking-1
 7631, 8061, 8382, 8423
*Elset, elset=_CP-59-interlocking-1_S4, internal, instance=interlocking-1
 8077, 8471
*Surface, type=ELEMENT, name=CP-59-interlocking-1
_CP-59-interlocking-1_S3, S3
_CP-59-interlocking-1_S1, S1
_CP-59-interlocking-1_S2, S2
_CP-59-interlocking-1_S4, S4
*Elset, elset=_CP-60-interlocking-1_S3, internal, instance=interlocking-1
 7078, 7132, 7375, 7453, 7454, 7870, 7998, 8045, 8053, 8062, 8075, 8078, 8138, 8141, 8148, 8165
 8228, 8242, 8246, 8258, 8269, 8275, 8277, 8278, 8279, 8280, 8281, 8283, 8284, 8296, 8298, 8303
 8306, 8315, 8329, 8331, 8337, 8340, 8342, 8343, 8345, 8354, 8360, 8361, 8561, 8579, 8617
*Elset, elset=_CP-60-interlocking-1_S2, internal, instance=interlocking-1
 7397, 8365
*Surface, type=ELEMENT, name=CP-60-interlocking-1
_CP-60-interlocking-1_S3, S3
_CP-60-interlocking-1_S2, S2
*Elset, elset=_CP-61-interlocking-1_S3, internal, instance=interlocking-1
   54,  100,  273,  338,  419,  581,  695,  698,  879,  900,  963, 1025, 1052, 1148, 1161, 1189
 1218, 1341, 1401, 1439, 1445, 1448, 1452, 1484, 1601, 1757, 1924, 1925, 1937, 1943, 1996, 2003
 2025, 2026, 2034, 2045, 2046, 2050, 2052, 2057, 2068, 2097, 2118, 2119, 2130, 2137, 2139, 2168
*Elset, elset=_CP-61-interlocking-1_S2, internal, instance=interlocking-1
 1454,
*Surface, type=ELEMENT, name=CP-61-interlocking-1
_CP-61-interlocking-1_S3, S3
_CP-61-interlocking-1_S2, S2
*Elset, elset=_CP-62-interlocking-1_S3, internal, instance=interlocking-1
 2312, 2675, 2796, 2825, 2936, 3242, 3243, 3357, 3452, 3474, 3485, 3514, 3552, 3564, 3643, 3801
 3829, 3879, 3883, 3895, 3920, 3922, 3953, 4003, 4065, 4163, 4167, 4225, 4254, 4277, 4282, 4321
*Elset, elset=_CP-62-interlocking-1_S2, internal, instance=interlocking-1
 2655, 3731, 3878, 3890, 3903, 3944, 3968, 4208, 4291
*Elset, elset=_CP-62-interlocking-1_S4, internal, instance=interlocking-1
 2670, 3898, 3995, 4283
*Elset, elset=_CP-62-interlocking-1_S1, internal, instance=interlocking-1
 3887, 3911, 3949, 4322
*Surface, type=ELEMENT, name=CP-62-interlocking-1
_CP-62-interlocking-1_S3, S3
_CP-62-interlocking-1_S2, S2
_CP-62-interlocking-1_S4, S4
_CP-62-interlocking-1_S1, S1
*Elset, elset=_CP-63-interlocking-1_S3, internal, instance=interlocking-1
 4822, 5118, 5472, 5617, 5783, 5793, 5831, 5939, 5966, 5989, 6027, 6068, 6090, 6172, 6279, 6333
 6338, 6339, 6341, 6345, 6359, 6360, 6361, 6378, 6383, 6386, 6398, 6402, 6406, 6408, 6411, 6417
 6419, 6471
*Elset, elset=_CP-63-interlocking-1_S4, internal, instance=interlocking-1
 4947, 5187, 6130, 6143, 6349
*Elset, elset=_CP-63-interlocking-1_S2, internal, instance=interlocking-1
 6004, 6108, 6118, 6228, 6426, 6441
*Elset, elset=_CP-63-interlocking-1_S1, internal, instance=interlocking-1
 6028, 6343, 6344, 6350
*Surface, type=ELEMENT, name=CP-63-interlocking-1
_CP-63-interlocking-1_S3, S3
_CP-63-interlocking-1_S4, S4
_CP-63-interlocking-1_S2, S2
_CP-63-interlocking-1_S1, S1
*Elset, elset=_CP-64-interlocking-1_S3, internal, instance=interlocking-1
   51,  405,  681,  690,  748,  799, 1034, 1242, 1301, 1345, 1346, 1434, 1597, 1609, 1614, 1618
 1673, 1675, 1676, 1681, 1682, 1766, 1767, 1782, 1789, 1793, 1796, 1802, 1805, 1806, 1807, 1809
 1816, 1834, 1836, 1841, 1842, 1846, 1849, 1856, 1892, 1910, 1955, 1960, 1990, 2000, 2005
*Elset, elset=_CP-64-interlocking-1_S4, internal, instance=interlocking-1
  309, 1819
*Surface, type=ELEMENT, name=CP-64-interlocking-1
_CP-64-interlocking-1_S3, S3
_CP-64-interlocking-1_S4, S4
*Elset, elset=_CP-65-interlocking-1_S3, internal, instance=interlocking-1
 4847, 5776, 5959, 6086, 6134, 6245, 6259, 6271, 6275, 6284, 6292, 6294, 6295, 6297, 6310, 6312
 6317, 6324, 6325, 6329, 6337, 6340, 6342, 6346, 6388, 6389, 6391, 6400, 6432
*Surface, type=ELEMENT, name=CP-65-interlocking-1
_CP-65-interlocking-1_S3, S3
*Elset, elset=_CP-66-interlocking-1_S3, internal, instance=interlocking-1
  226,  455,  556,  809,  898,  978, 1053, 1070, 1147, 1208, 1210, 1253, 1316, 1322, 1402, 1459
 1473, 1499, 1500, 1568, 1573, 1590, 1598, 1603, 1604, 1605, 1608, 1617, 1642, 1668, 1669, 1680
 1771, 1804, 1823, 1844, 1853, 1866, 1871, 1886, 1899, 1914, 1916, 1922, 1930, 1934, 1938, 1941
 1947, 1949, 1950, 1953, 1965, 1972, 2070
*Elset, elset=_CP-66-interlocking-1_S1, internal, instance=interlocking-1
 1238,
*Elset, elset=_CP-66-interlocking-1_S2, internal, instance=interlocking-1
 1942,
*Elset, elset=_CP-66-interlocking-1_S4, internal, instance=interlocking-1
 1963,
*Surface, type=ELEMENT, name=CP-66-interlocking-1
_CP-66-interlocking-1_S3, S3
_CP-66-interlocking-1_S1, S1
_CP-66-interlocking-1_S2, S2
_CP-66-interlocking-1_S4, S4
*Elset, elset=_CP-67-interlocking-1_S3, internal, instance=interlocking-1
 2564, 2774, 3165, 3275, 3394, 3663, 3671, 3673, 3677, 3678, 3701, 3702, 3703, 3706, 3707, 3709
 3713, 3720, 3725, 3750, 3780, 3973, 4021, 4289
*Elset, elset=_CP-67-interlocking-1_S4, internal, instance=interlocking-1
 3692,
*Elset, elset=_CP-67-interlocking-1_S1, internal, instance=interlocking-1
 3712, 3715, 3721, 3751
*Surface, type=ELEMENT, name=CP-67-interlocking-1
_CP-67-interlocking-1_S3, S3
_CP-67-interlocking-1_S4, S4
_CP-67-interlocking-1_S1, S1
*Elset, elset=_CP-68-interlocking-1_S3, internal, instance=interlocking-1
  226,  455,  556,  809,  898,  978, 1053, 1070, 1147, 1208, 1210, 1253, 1316, 1322, 1402, 1459
 1473, 1499, 1500, 1568, 1573, 1590, 1598, 1603, 1604, 1605, 1608, 1617, 1642, 1668, 1669, 1680
 1771, 1804, 1823, 1844, 1853, 1866, 1871, 1886, 1899, 1914, 1916, 1922, 1930, 1934, 1938, 1941
 1947, 1949, 1950, 1953, 1965, 1972, 2070
*Elset, elset=_CP-68-interlocking-1_S1, internal, instance=interlocking-1
 1238,
*Elset, elset=_CP-68-interlocking-1_S2, internal, instance=interlocking-1
 1942,
*Elset, elset=_CP-68-interlocking-1_S4, internal, instance=interlocking-1
 1963,
*Surface, type=ELEMENT, name=CP-68-interlocking-1
_CP-68-interlocking-1_S3, S3
_CP-68-interlocking-1_S1, S1
_CP-68-interlocking-1_S2, S2
_CP-68-interlocking-1_S4, S4
*Elset, elset=_CP-69-interlocking-1_S4, internal, instance=interlocking-1
 2179,
*Elset, elset=_CP-69-interlocking-1_S3, internal, instance=interlocking-1
 2718, 2931, 3003, 3281, 3415, 3694, 3708, 3712, 3715, 3719, 3721, 3727, 3728, 3729, 3732, 3733
 3743, 3746, 3753, 3929, 4066, 4067, 4288
*Elset, elset=_CP-69-interlocking-1_S1, internal, instance=interlocking-1
 3714, 3758, 4025
*Elset, elset=_CP-69-interlocking-1_S2, internal, instance=interlocking-1
 3717, 3751
*Surface, type=ELEMENT, name=CP-69-interlocking-1
_CP-69-interlocking-1_S4, S4
_CP-69-interlocking-1_S3, S3
_CP-69-interlocking-1_S2, S2
_CP-69-interlocking-1_S1, S1
*Elset, elset=_CP-70-interlocking-1_S3, internal, instance=interlocking-1
 4697, 4841, 4844, 4962, 5058, 5112, 5527, 5639, 5731, 5803, 6026, 6127, 6157, 6248, 6314, 6357
 6390, 6407, 6409, 6414, 6427, 6469
*Elset, elset=_CP-70-interlocking-1_S4, internal, instance=interlocking-1
 4983, 5200, 6245, 6346
*Elset, elset=_CP-70-interlocking-1_S2, internal, instance=interlocking-1
 6317, 6340, 6473
*Surface, type=ELEMENT, name=CP-70-interlocking-1
_CP-70-interlocking-1_S3, S3
_CP-70-interlocking-1_S4, S4
_CP-70-interlocking-1_S2, S2
*Elset, elset=_CP-71-interlocking-1_S3, internal, instance=interlocking-1
 6621, 7023, 7166, 7383, 7660, 7915, 8069, 8105, 8137, 8156, 8193, 8244, 8268, 8273, 8304, 8363
 8384, 8418, 8498, 8506, 8517, 8518, 8524, 8525, 8538, 8546, 8559, 8563, 8568, 8572, 8584, 8586
 8590, 8594, 8610
*Elset, elset=_CP-71-interlocking-1_S4, internal, instance=interlocking-1
 8124, 8154, 8164, 8180, 8293, 8512, 8544
*Elset, elset=_CP-71-interlocking-1_S1, internal, instance=interlocking-1
 8169, 8378, 8379, 8532
*Elset, elset=_CP-71-interlocking-1_S2, internal, instance=interlocking-1
 8198, 8533, 8545
*Surface, type=ELEMENT, name=CP-71-interlocking-1
_CP-71-interlocking-1_S3, S3
_CP-71-interlocking-1_S4, S4
_CP-71-interlocking-1_S2, S2
_CP-71-interlocking-1_S1, S1
*Elset, elset=_CP-72-interlocking-1_S3, internal, instance=interlocking-1
 2406, 2881, 3083, 3228, 3356, 3365, 3529, 3530, 3624, 3659, 3722, 3724, 3739, 3756, 3773, 3776
 3783, 3786, 3787, 3790, 3806, 3843, 3852, 3853, 3865, 3876, 3951, 3954, 3961, 3970, 3977, 3979
 3981, 3983, 3984, 3987, 4011, 4016, 4019, 4025, 4028, 4046, 4052, 4063, 4077, 4139, 4147
*Elset, elset=_CP-72-interlocking-1_S1, internal, instance=interlocking-1
 2489,
*Elset, elset=_CP-72-interlocking-1_S2, internal, instance=interlocking-1
 4127,
*Surface, type=ELEMENT, name=CP-72-interlocking-1
_CP-72-interlocking-1_S3, S3
_CP-72-interlocking-1_S1, S1
_CP-72-interlocking-1_S2, S2
*Elset, elset=_CP-73-interlocking-1_S3, internal, instance=interlocking-1
 8212, 8327, 8397, 8404, 8406, 8434, 8442, 8444, 8447, 8457, 8460, 8463, 8467, 8473, 8485, 8487
 8490, 8491, 8492, 8493, 8497, 8527, 8541, 8542, 8543, 8551, 8553, 8557, 8624
*Surface, type=ELEMENT, name=CP-73-interlocking-1
_CP-73-interlocking-1_S3, S3
*Elset, elset=_CP-74-interlocking-1_S3, internal, instance=interlocking-1
 2304, 2335, 2593, 2863, 3012, 3149, 3199, 3291, 3316, 3321, 3371, 3436, 3445, 3500, 3593, 3660
 3682, 3684, 3685, 3686, 3687, 3690, 3699, 3741, 3772, 3781, 3782, 3794, 3796, 3812, 3836, 3845
 3986, 4035, 4064, 4072, 4074, 4080, 4082, 4090, 4104, 4106, 4109, 4111, 4115, 4118, 4124, 4131
 4133, 4148, 4152, 4186, 4243
*Elset, elset=_CP-74-interlocking-1_S1, internal, instance=interlocking-1
 3454, 4169
*Elset, elset=_CP-74-interlocking-1_S2, internal, instance=interlocking-1
 3774, 4094
*Elset, elset=_CP-74-interlocking-1_S4, internal, instance=interlocking-1
 4126,
*Surface, type=ELEMENT, name=CP-74-interlocking-1
_CP-74-interlocking-1_S3, S3
_CP-74-interlocking-1_S1, S1
_CP-74-interlocking-1_S2, S2
_CP-74-interlocking-1_S4, S4
*Elset, elset=_CP-75-interlocking-1_S3, internal, instance=interlocking-1
 4440, 4482, 4484, 4564, 4599, 4604, 4715, 4750, 4788, 4796, 4862, 4907, 4976, 5063, 5105, 5335
 5408, 5524, 5596, 5598, 5671, 5747, 5750, 5775, 5969, 6006, 6158, 6159, 6180, 6185, 6211, 6226
 6237, 6269, 6280, 6296, 6301, 6321, 6322, 6326, 6327, 6336, 6352, 6354, 6410, 6438, 6439, 6445
*Elset, elset=_CP-75-interlocking-1_S1, internal, instance=interlocking-1
 6367,
*Surface, type=ELEMENT, name=CP-75-interlocking-1
_CP-75-interlocking-1_S3, S3
_CP-75-interlocking-1_S1, S1
*Elset, elset=_CP-76-interlocking-1_S3, internal, instance=interlocking-1
 6650, 7362, 7546, 7548, 7564, 7584, 7778, 7784, 7819, 7822, 7859, 7864, 8129, 8131, 8151, 8192
 8195, 8205, 8208, 8218, 8223, 8229, 8252, 8264, 8292, 8413, 8500, 8511, 8611, 8620
*Elset, elset=_CP-76-interlocking-1_S4, internal, instance=interlocking-1
 7042, 7589, 8182, 8363, 8518
*Elset, elset=_CP-76-interlocking-1_S2, internal, instance=interlocking-1
 7645, 8137, 8152, 8153, 8178, 8193, 8214, 8308, 8618
*Elset, elset=_CP-76-interlocking-1_S1, internal, instance=interlocking-1
 7660, 8184, 8190, 8197, 8256
*Surface, type=ELEMENT, name=CP-76-interlocking-1
_CP-76-interlocking-1_S3, S3
_CP-76-interlocking-1_S4, S4
_CP-76-interlocking-1_S2, S2
_CP-76-interlocking-1_S1, S1
*Elset, elset=_CP-77-f1_SNEG, internal, instance=f1, generate
 581,  612,    1
*Surface, type=ELEMENT, name=CP-77-f1
_CP-77-f1_SNEG, SNEG
*Elset, elset=_CP-77-interlocking-1_S3, internal, instance=interlocking-1
 4365, 4435, 4711, 4725, 4776, 4848, 4868, 4936, 4979, 5222, 5299, 5319, 5356, 5577, 5648, 5684
 5762, 5764, 5808, 5823, 5830, 5832, 5851, 5891, 5892, 5897, 5899, 5907, 5908, 5911, 5917, 5922
 5943, 5945, 5949, 5960, 5962, 6042, 6164, 6171, 6192, 6193, 6201, 6208, 6212, 6223, 6225, 6231
 6238, 6244, 6278, 6328, 6466
*Elset, elset=_CP-77-interlocking-1_S1, internal, instance=interlocking-1
 4908,
*Elset, elset=_CP-77-interlocking-1_S2, internal, instance=interlocking-1
 4640, 6218
*Elset, elset=_CP-77-interlocking-1_S4, internal, instance=interlocking-1
 6169, 6444
*Surface, type=ELEMENT, name=CP-77-interlocking-1
_CP-77-interlocking-1_S3, S3
_CP-77-interlocking-1_S1, S1
_CP-77-interlocking-1_S2, S2
_CP-77-interlocking-1_S4, S4
*Elset, elset=_CP-78-f1_SNEG, internal, instance=f1, generate
 613,  652,    1
*Surface, type=ELEMENT, name=CP-78-f1
_CP-78-f1_SNEG, SNEG
*Elset, elset=_CP-78-interlocking-1_S3, internal, instance=interlocking-1
 7011, 7661, 7757, 7758, 7857, 7911, 7968, 7974, 7983, 7988, 7990, 8001, 8004, 8012, 8020, 8027
 8030, 8047, 8054, 8167, 8245, 8346, 8351
*Elset, elset=_CP-78-interlocking-1_S1, internal, instance=interlocking-1
 8018, 8026, 8031, 8035, 8048
*Elset, elset=_CP-78-interlocking-1_S2, internal, instance=interlocking-1
 8021,
*Surface, type=ELEMENT, name=CP-78-interlocking-1
_CP-78-interlocking-1_S3, S3
_CP-78-interlocking-1_S1, S1
_CP-78-interlocking-1_S2, S2
*Elset, elset=_CP-79-f1_SNEG, internal, instance=f1, generate
 964,  982,    1
*Surface, type=ELEMENT, name=CP-79-f1
_CP-79-f1_SNEG, SNEG
*Elset, elset=_CP-80-f1_SNEG, internal, instance=f1, generate
  983,  1014,     1
*Surface, type=ELEMENT, name=CP-80-f1
_CP-80-f1_SNEG, SNEG
*Elset, elset=_CP-81-f1_SNEG, internal, instance=f1, generate
 1015,  1054,     1
*Surface, type=ELEMENT, name=CP-81-f1
_CP-81-f1_SNEG, SNEG
*Elset, elset=_CP-82-f1_SNEG, internal, instance=f1, generate
 1362,  1380,     1
*Surface, type=ELEMENT, name=CP-82-f1
_CP-82-f1_SNEG, SNEG
*Elset, elset=_CP-83-f1_SNEG, internal, instance=f1, generate
 1605,  1636,     1
*Surface, type=ELEMENT, name=CP-83-f1
_CP-83-f1_SNEG, SNEG
*Elset, elset=_CP-84-f1_SNEG, internal, instance=f1, generate
 1810,  1848,     1
*Surface, type=ELEMENT, name=CP-84-f1
_CP-84-f1_SNEG, SNEG
*Elset, elset=_CP-85-f1_SNEG, internal, instance=f1, generate
 2105,  2136,     1
*Surface, type=ELEMENT, name=CP-85-f1
_CP-85-f1_SNEG, SNEG
*Elset, elset=_CP-86-f1_SNEG, internal, instance=f1, generate
 2137,  2156,     1
*Surface, type=ELEMENT, name=CP-86-f1
_CP-86-f1_SNEG, SNEG
*Elset, elset=_CP-87-f1_SNEG, internal, instance=f1, generate
 2157,  2175,     1
*Surface, type=ELEMENT, name=CP-87-f1
_CP-87-f1_SNEG, SNEG
*Elset, elset=_CP-88-f1_SNEG, internal, instance=f1, generate
 2400,  2431,     1
*Surface, type=ELEMENT, name=CP-88-f1
_CP-88-f1_SNEG, SNEG
*Elset, elset=_CP-89-f1_SNEG, internal, instance=f1, generate
 2432,  2451,     1
*Surface, type=ELEMENT, name=CP-89-f1
_CP-89-f1_SNEG, SNEG
*Elset, elset=_CP-90-f1_SNEG, internal, instance=f1, generate
 2608,  2646,     1
*Surface, type=ELEMENT, name=CP-90-f1
_CP-90-f1_SNEG, SNEG
*Elset, elset=_CP-91-f1_SNEG, internal, instance=f1, generate
 2904,  2935,     1
*Surface, type=ELEMENT, name=CP-91-f1
_CP-91-f1_SNEG, SNEG
*Elset, elset=_CP-92-f1_SNEG, internal, instance=f1, generate
 2936,  2955,     1
*Surface, type=ELEMENT, name=CP-92-f1
_CP-92-f1_SNEG, SNEG
*Elset, elset=_CP-93-f1_SNEG, internal, instance=f1, generate
 3230,  3249,     1
*Surface, type=ELEMENT, name=CP-93-f1
_CP-93-f1_SNEG, SNEG
*Elset, elset=_CP-94-f1_SNEG, internal, instance=f1, generate
 3629,  3649,     1
*Surface, type=ELEMENT, name=CP-94-f1
_CP-94-f1_SNEG, SNEG
*Elset, elset=_CP-95-f1_SNEG, internal, instance=f1, generate
 3650,  3668,     1
*Surface, type=ELEMENT, name=CP-95-f1
_CP-95-f1_SNEG, SNEG
*Elset, elset=_CP-96-f1_SNEG, internal, instance=f1, generate
 3669,  3700,     1
*Surface, type=ELEMENT, name=CP-96-f1
_CP-96-f1_SNEG, SNEG
*Elset, elset=_CP-97-f1_SNEG, internal, instance=f1, generate
 4048,  4068,     1
*Surface, type=ELEMENT, name=CP-97-f1
_CP-97-f1_SNEG, SNEG
*Elset, elset=_CP-98-f1_SNEG, internal, instance=f1, generate
 4069,  4100,     1
*Surface, type=ELEMENT, name=CP-98-f1
_CP-98-f1_SNEG, SNEG
*Elset, elset=_Surf-139_S3, internal, instance=interlocking-1
 2336, 2382, 2580, 2587, 2712, 2882, 2902, 2992, 3002, 3164, 3301, 3329, 3399, 3423, 3594, 3650
 3651, 3652, 3656, 3657, 3664, 3666, 3675, 3735, 3749, 3770, 3795, 3807, 3809, 3816, 3854, 3948
 3952, 3967, 4042, 4050, 4060, 4062, 4070, 4100, 4120, 4220, 4591, 4842, 4843, 4849, 4855, 4919
 5313, 5368, 5451, 5541, 5690, 5755, 5757, 5769, 5770, 5777, 5779, 5820, 5918, 5919, 5977, 6093
 6149, 6167, 6210, 6227, 6234, 6246, 6262, 6264, 6273, 6299, 6300, 6303, 6308, 6309, 6316, 6369
 6374, 6381
*Elset, elset=_Surf-139_S1, internal, instance=interlocking-1
 2342, 3663, 3701, 3717, 4852, 6192, 6223, 6275, 6414, 6444
*Elset, elset=_Surf-139_S4, internal, instance=interlocking-1
 3660, 3703, 3732, 3745, 4066, 4121, 4559, 5349, 5453, 5945, 6157, 6218, 6295
*Elset, elset=_Surf-139_S2, internal, instance=interlocking-1
 3674, 3678, 3684, 3708, 3942, 4074, 4962, 5771, 5936, 6329, 6337
*Surface, type=ELEMENT, name=Surf-139
_Surf-139_S3, S3
_Surf-139_S1, S1
_Surf-139_S4, S4
_Surf-139_S2, S2
*Rigid Body, ref node=f1.frame-RefPt_, elset=f1.frame
** Constraint: Constraint-1
*Tie, name=Constraint-1, adjust=yes
CP-40-interlocking-1, CP-39-interlocking-1
** Constraint: Constraint-2
*Tie, name=Constraint-2, adjust=yes
CP-78-f1, CP-77-f1
*End Assembly
** 
** MATERIALS
** 
*Material, name=high-strength
*Elastic
 2e+12, 0.3
** 
** INTERACTION PROPERTIES
** 
*Surface Interaction, name=IntProp-1
1.,
*Friction
0.,
*Surface Behavior, pressure-overclosure=HARD
** 
** INTERACTIONS
** 
** Interaction: CP-39-f1-interlocking-1
*Contact Pair, interaction=IntProp-1, type=SURFACE TO SURFACE
CP-39-interlocking-1, CP-77-f1
** Interaction: CP-40-f1-interlocking-1
*Contact Pair, interaction=IntProp-1, type=SURFACE TO SURFACE
CP-40-interlocking-1, CP-78-f1
** Interaction: CP-41-f1-interlocking-1
*Contact Pair, interaction=IntProp-1, type=SURFACE TO SURFACE
CP-41-interlocking-1, CP-79-f1
** Interaction: CP-42-f1-interlocking-1
*Contact Pair, interaction=IntProp-1, type=SURFACE TO SURFACE
CP-42-interlocking-1, CP-80-f1
** Interaction: CP-43-f1-interlocking-1
*Contact Pair, interaction=IntProp-1, type=SURFACE TO SURFACE
CP-43-interlocking-1, CP-81-f1
** Interaction: CP-44-f1-interlocking-1
*Contact Pair, interaction=IntProp-1, type=SURFACE TO SURFACE
CP-44-interlocking-1, CP-82-f1
** Interaction: CP-45-f1-interlocking-1
*Contact Pair, interaction=IntProp-1, type=SURFACE TO SURFACE
CP-45-interlocking-1, CP-83-f1
** Interaction: CP-46-f1-interlocking-1
*Contact Pair, interaction=IntProp-1, type=SURFACE TO SURFACE
CP-46-interlocking-1, CP-84-f1
** Interaction: CP-47-f1-interlocking-1
*Contact Pair, interaction=IntProp-1, type=SURFACE TO SURFACE
CP-47-interlocking-1, CP-85-f1
** Interaction: CP-48-f1-interlocking-1
*Contact Pair, interaction=IntProp-1, type=SURFACE TO SURFACE
CP-48-interlocking-1, CP-86-f1
** Interaction: CP-49-f1-interlocking-1
*Contact Pair, interaction=IntProp-1, type=SURFACE TO SURFACE
CP-49-interlocking-1, CP-87-f1
** Interaction: CP-50-f1-interlocking-1
*Contact Pair, interaction=IntProp-1, type=SURFACE TO SURFACE
CP-50-interlocking-1, CP-88-f1
** Interaction: CP-51-f1-interlocking-1
*Contact Pair, interaction=IntProp-1, type=SURFACE TO SURFACE
CP-51-interlocking-1, CP-89-f1
** Interaction: CP-52-f1-interlocking-1
*Contact Pair, interaction=IntProp-1, type=SURFACE TO SURFACE
CP-52-interlocking-1, CP-90-f1
** Interaction: CP-53-f1-interlocking-1
*Contact Pair, interaction=IntProp-1, type=SURFACE TO SURFACE
CP-53-interlocking-1, CP-91-f1
** Interaction: CP-54-f1-interlocking-1
*Contact Pair, interaction=IntProp-1, type=SURFACE TO SURFACE
CP-54-interlocking-1, CP-92-f1
** Interaction: CP-55-f1-interlocking-1
*Contact Pair, interaction=IntProp-1, type=SURFACE TO SURFACE
CP-55-interlocking-1, CP-93-f1
** Interaction: CP-56-f1-interlocking-1
*Contact Pair, interaction=IntProp-1, type=SURFACE TO SURFACE
CP-56-interlocking-1, CP-94-f1
** Interaction: CP-57-f1-interlocking-1
*Contact Pair, interaction=IntProp-1, type=SURFACE TO SURFACE
CP-57-interlocking-1, CP-95-f1
** Interaction: CP-58-f1-interlocking-1
*Contact Pair, interaction=IntProp-1, type=SURFACE TO SURFACE
CP-58-interlocking-1, CP-96-f1
** Interaction: CP-59-f1-interlocking-1
*Contact Pair, interaction=IntProp-1, type=SURFACE TO SURFACE
CP-59-interlocking-1, CP-97-f1
** Interaction: CP-60-f1-interlocking-1
*Contact Pair, interaction=IntProp-1, type=SURFACE TO SURFACE
CP-60-interlocking-1, CP-98-f1
** Interaction: CP-61-interlocking-1-interlocking-1
*Contact Pair, interaction=IntProp-1, type=SURFACE TO SURFACE
CP-62-interlocking-1, CP-61-interlocking-1
** Interaction: CP-62-interlocking-1-interlocking-1
*Contact Pair, interaction=IntProp-1, type=SURFACE TO SURFACE
CP-64-interlocking-1, CP-63-interlocking-1
** Interaction: CP-63-interlocking-1-interlocking-1
*Contact Pair, interaction=IntProp-1, type=SURFACE TO SURFACE
CP-66-interlocking-1, CP-65-interlocking-1
** Interaction: CP-64-interlocking-1-interlocking-1
*Contact Pair, interaction=IntProp-1, type=SURFACE TO SURFACE
CP-68-interlocking-1, CP-67-interlocking-1
** Interaction: CP-65-interlocking-1-interlocking-1
*Contact Pair, interaction=IntProp-1, type=SURFACE TO SURFACE
CP-70-interlocking-1, CP-69-interlocking-1
** Interaction: CP-66-interlocking-1-interlocking-1
*Contact Pair, interaction=IntProp-1, type=SURFACE TO SURFACE
CP-72-interlocking-1, CP-71-interlocking-1
** Interaction: CP-67-interlocking-1-interlocking-1
*Contact Pair, interaction=IntProp-1, type=SURFACE TO SURFACE
CP-74-interlocking-1, CP-73-interlocking-1
** Interaction: CP-68-interlocking-1-interlocking-1
*Contact Pair, interaction=IntProp-1, type=SURFACE TO SURFACE
CP-76-interlocking-1, CP-75-interlocking-1
** Interaction: CP-69-interlocking-1-interlocking-1
*Contact Pair, interaction=IntProp-1, type=SURFACE TO SURFACE
CP-78-interlocking-1, CP-77-interlocking-1
** ----------------------------------------------------------------
** 
** STEP: Step-1
** 
*Step, name=Step-1, nlgeom=NO
*Static
1., 1., 1e-05, 1.
** 
** BOUNDARY CONDITIONS
** 
** Name: BC-1 Type: Symmetry/Antisymmetry/Encastre
*Boundary
Set-1, ENCASTRE
** 
** LOADS
** 
** Name: Load-1   Type: Pressure
*Dsload
Surf-139, P, 1.
** 
** OUTPUT REQUESTS
** 
*Restart, write, frequency=0
** 
** FIELD OUTPUT: F-Output-1
** 
*Output, field, variable=PRESELECT
** 
** HISTORY OUTPUT: H-Output-1
** 
*Output, history, variable=PRESELECT
*End Step
