*Heading
** Job name: interlocking-1j Model name: interlocking-1
** Generated by: Abaqus/CAE 2023
*Preprint, echo=NO, model=NO, history=NO, contact=NO
**
** PARTS
**
*Part, name=frame
*Node
      1,   2.02000022,   4.01999998,           0.
      2,   4.01999998,   6.01999998,           0.
      3,   4.01999998,   4.01999998,           0.
      4,   3.02000022,   5.01999998,   1.41421342
      5,   4.01999998,   4.01999998,   1.41421354
      6,   3.01999998,   3.01999998,   1.41421354
      7,   2.01999998,   6.01999998,           0.
      8,   2.01999998,   4.01999998,   1.41421354
      9,   1.01999998,   5.01999998,   1.41421354
     10,   2.01999998,   6.01999998,   1.41421354
     11,   2.02000022,   2.00999999,           0.
     12,   4.01999998,   4.01000023,           0.
     13,   4.01999998,   2.00999999,           0.
     14,   3.02000022,   3.00999999,   1.41421342
     15,   4.01999998,   2.00999999,   1.41421354
     16,   3.01999998,   1.00999999,   1.41421354
     17,   2.01999998,   4.01000023,           0.
     18,   2.01999998,   2.00999999,   1.41421354
     19,   1.01999998,   3.00999999,   1.41421354
     20,   2.01999998,   4.01000023,   1.41421354
** ... 28214 like lines cut
*Element, type=C3D10
   1, 2425, 2426, 2427, 2428, 4248, 4247, 4246, 4250, 4249, 4251
   2, 1237, 2429, 1256, 2430, 4254, 4253, 4252, 4256, 4255, 4257
   3, 2431, 1252, 2432,  203, 4260, 4259, 4258, 4262, 4261, 4263
   4, 2431, 2428, 1255,  204, 4266, 4265, 4264, 4268, 4267, 4269
   5, 2431, 1255, 2428, 2433, 4264, 4265, 4266, 4271, 4270, 4272
   6, 1227,  150, 2434,  182, 4275, 4274, 4273, 4277, 4276, 4278
   7, 2431, 2435, 2433, 2428, 4280, 4279, 4271, 4266, 4281, 4272
   8, 2431, 2435, 2426, 2436, 4280, 4283, 4282, 4285, 4284, 4286
   9, 2437, 2438, 2439, 2440, 4289, 4288, 4287, 4291, 4290, 4292
  10, 2437, 2441, 2440, 2442, 4294, 4293, 4291, 4296, 4295, 4297
  11, 2437, 2441, 2443, 2444, 4294, 4299, 4298, 4301, 4300, 4302
  12, 2437, 2439, 2445, 2446, 4287, 4304, 4303, 4306, 4305, 4307
  13, 2437, 2439, 2446, 2440, 4287, 4305, 4306, 4291, 4292, 4308
  14, 2437, 2442, 2447, 2443, 4296, 4310, 4309, 4298, 4311, 4312
  15, 2442, 2437, 2441, 2443, 4296, 4294, 4295, 4311, 4298, 4299
  16, 2437, 2442, 2448, 2447, 4296, 4314, 4313, 4309, 4310, 4315
  17, 2449, 1146, 1147,   86, 4318, 4317, 4316, 4320, 4319, 4321
  18, 2441, 2450, 2451, 2452, 4324, 4323, 4322, 4326, 4325, 4327
  19, 2441, 2450, 2453, 2451, 4324, 4329, 4328, 4322, 4323, 4330
  20, 2437, 2441, 2438, 2440, 4294, 4331, 4289, 4291, 4293, 4290
** ... 17324 like lines cut
*Node
  28235,   2.01999998,   4.01999998,   1.41421354
*Nset, nset=frame-RefPt_, internal
28235, 
*Nset, nset=Set-1, generate
     1,  28234,      1
*Elset, elset=Set-1, generate
     1,  17344,      1
** Section: Section-1
*Solid Section, elset=Set-1, material=high-strength
,
*End Part
**  
*Part, name=interlocking
*Node
      1, 0.00999999885,   2.00999999,           0.
      2,   2.00999999,   4.01000023,           0.
      3,   2.00999999,   2.00999999,           0.
      4,   1.01000011,   3.00999999,   1.41421342
      5,   2.00999999,   2.00999999,   1.41421354
      6,   1.00999999,   1.00999999,   1.41421354
      7, 0.00999999978,   4.01000023,           0.
      8, 0.00999999978,   2.00999999,   1.41421354
      9,  -0.98999995,   3.00999999,   1.41421354
     10, 0.00999999978,   4.01000023,   1.41421354
     11,  0.209999993,   2.21000004,           0.
     12,  0.409999996,   2.41000009,           0.
     13,  0.610000014,   2.61000013,           0.
     14,  0.810000002,   2.81000018,           0.
     15,   1.00999999,   3.00999999,           0.
     16,   1.21000004,   3.21000004,           0.
     17,   1.40999997,   3.41000009,           0.
     18,   1.61000001,   3.61000013,           0.
     19,   1.80999994,   3.81000018,           0.
     20,   2.00999999,   3.72428584,           0.
** ... 3488 like lines cut
*Element, type=C3D10
   1,  304,  305,  306,  307,  531,  530,  529,  533,  532,  534
   2,  304,  308,  309,  310,  537,  536,  535,  539,  538,  540
   3,  306,  311,  312,  304,  543,  542,  541,  529,  544,  545
   4,  313,  314,  315,  316,  548,  547,  546,  550,  549,  551
   5,  304,  312,  306,  305,  545,  541,  529,  531,  552,  530
   6,  304,  317,  307,  306,  554,  553,  533,  529,  555,  534
   7,  304,  311,  317,  306,  544,  556,  554,  529,  543,  555
   8,  318,  319,  320,  321,  559,  558,  557,  561,  560,  562
   9,  318,  322,  323,  320,  565,  564,  563,  557,  566,  567
  10,  318,  323,  324,  320,  563,  569,  568,  557,  567,  570
  11,  318,  325,  326,  321,  573,  572,  571,  561,  574,  575
  12,  327,  328,  329,  330,  578,  577,  576,  580,  579,  581
  13,  329,  331,  326,  327,  584,  583,  582,  576,  585,  586
  14,  305,  177,   52,  176,  589,  588,  587,  591,  590,  592
  15,  327,  332,  333,  328,  595,  594,  593,  578,  596,  597
  16,  327,  333,  326,  329,  593,  598,  586,  576,  599,  582
  17,  334,  327,  330,  335,  601,  580,  600,  603,  602,  604
  18,  327,  335,  334,  336,  602,  603,  601,  606,  605,  607
  19,  327,  333,  321,  326,  593,  609,  608,  586,  598,  575
  20,  311,  337,  338,  339,  612,  611,  610,  614,  613,  615
** ... 2132 like lines cut
*Nset, nset=Set-1, generate
    1,  3508,     1
*Elset, elset=Set-1, generate
    1,  2152,     1
** Section: Section-1
*Solid Section, elset=Set-1, material=high-strength
,
*End Part
**  
**
** ASSEMBLY
**
*Assembly, name=Assembly
**  
*Instance, name=f1, part=frame
*End Instance
**  
*Instance, name=interlocking-1, part=interlocking
*End Instance
**  
*Nset, nset=Set-1, instance=f1
     1,     2,     3,     4,     5,     6,     7,     8,     9,    10,    11,    12,    13,    14,    15,    16
    17,    18,    19,    20,    21,    22,    23,    24,    25,    26,    27,    28,    29,    30,    31,    32
    33,    34,    35,    36,    37,    38,    39,    40,    41,    42,    43,    44,    45,    46,    47,    48
    49,    50,    51,    52,    53,    54,    55,    56,    57,    58,    59,    60,    61,    62,    63,    64
    65,    66,    67,    68,    69,    70,    71,    72,    73,    74,    75,    76,    77,    78,    79,    80
    81,    82,    83,    84,    85,    86,    87,    88,    89,    90,    91,    92,    93,    94,    95,    96
    97,    98,    99,   100,   101,   102,   103,   104,   105,   106,   107,   108,   109,   110,   111,   112
   113,   114,   115,   116,   117,   118,   119,   120,   121,   122,   123,   124,   125,   126,   127,   128
   129,   130,   131,   132,   133,   134,   135,   136,   137,   138,   139,   140,   141,   142,   143,   144
   145,   146,   147,   148,   149,   150,   151,   152,   153,   154,   155,   156,   157,   158,   159,   160
   161,   162,   163,   164,   165,   166,   167,   168,   169,   170,   171,   172,   173,   174,   175,   176
   177,   178,   179,   180,   181,   182,   183,   184,   185,   186,   187,   188,   189,   190,   191,   192
   193,   194,   195,   196,   197,   198,   199,   200,   201,   202,   203,   204,   205,   206,   207,   208
   209,   210,   211,   212,   213,   214,   215,   216,   217,   218,   219,   220,   221,   222,   223,   224
   225,   226,   227,   228,   229,   230,   231,   232,   233,   234,   235,   236,   237,   238,   239,   240
   241,   242,   243,   244,   245,   246,   247,   248,   249,   250,   251,   252,   253,   254,   255,   256
   257,   258,   259,   260,   261,   262,   263,   264,   265,   266,   267,   268,   269,   270,   271,   272
   273,   274,   275,   276,   277,   278,   279,   280,   281,   282,   283,   284,   285,   286,   287,   288
   289,   290,   291,   292,   293,   294,   295,   296,   297,   298,   299,   300,   301,   302,   303,   304
   305,   306,   307,   308,   309,   310,   311,   312,   313,   314,   315,   316,   317,   318,   319,   320
** ... 584 like lines cut
*Elset, elset=Set-1, instance=f1
     6,    17,    38,    55,    73,    74,    80,    89,   110,   137,   140,   159,   166,   171,   174,   177
   187,   206,   221,   223,   270,   277,   289,   302,   323,   344,   367,   411,   436,   457,   466,   467
   471,   477,   490,   516,   538,   544,   548,   554,   556,   574,   575,   578,   615,   616,   618,   645
   658,   659,   660,   662,   666,   667,   668,   677,   682,   702,   715,   720,   721,   740,   749,   757
   771,   773,   774,   787,   789,   790,   799,   806,   813,   827,   828,   842,   850,   887,   891,   904
   909,   936,   937,   939,   969,   985,   995,  1009,  1013,  1039,  1046,  1059,  1085,  1102,  1106,  1116
  1119,  1131,  1132,  1163,  1166,  1178,  1191,  1195,  1201,  1209,  1211,  1218,  1221,  1227,  1233,  1238
  1252,  1253,  1257,  1261,  1276,  1277,  1279,  1280,  1294,  1313,  1315,  1340,  1341,  1346,  1350,  1351
  1354,  1358,  1362,  1371,  1372,  1399,  1401,  1402,  1404,  1408,  1411,  1415,  1418,  1423,  1431,  1432
  1434,  1438,  1439,  1442,  1446,  1448,  1452,  1454,  1457,  1458,  1459,  1461,  1469,  1473,  1474,  1483
  1488,  1493,  1497,  1499,  1501,  1502,  1505,  1506,  1508,  1510,  1512,  1515,  1516,  1518,  1528,  1531
  1532,  1534,  1535,  1537,  1539,  1542,  1548,  1549,  1550,  1554,  1555,  1556,  1557,  1558,  1561,  1562
  1564,  1565,  1569,  1570,  1573,  1577,  1578,  1579,  1582,  1585,  1586,  1589,  1590,  1591,  1593,  1594
  1595,  1597,  1598,  1599,  1602,  1604,  1605,  1606,  1608,  1609,  1610,  1611,  1612,  1614,  1615,  1616
  1617,  1620,  1621,  1623,  1627,  1628,  1629,  1631,  1632,  1633,  1634,  1637,  1642,  1643,  1646,  1648
  1650,  1651,  1652,  1656,  1657,  1659,  1664,  1666,  1667,  1668,  1669,  1670,  1673,  1675,  1677,  1678
  1679,  1680,  1681,  1682,  1683,  1684,  1685,  1686,  1688,  1690,  1691,  1693,  1695,  1699,  1700,  1702
  1703,  1705,  1706,  1707,  1708,  1711,  1712,  1713,  1714,  1715,  1717,  1718,  1719,  1720,  1722,  1723
  1731,  1734,  1741,  1742,  1743,  1744,  1745,  1748,  1749,  1751,  1752,  1755,  1758,  1760,  1761,  1763
  1764,  1765,  1766,  1767,  1769,  1773,  1775,  1778,  1779,  1786,  1791,  1792,  1793,  1795,  1796,  1798
** ... 255 like lines cut
*Elset, elset=_CP-1-f1_S4, internal, instance=f1
 2764, 3575, 3864, 3873, 3922
*Elset, elset=_CP-1-f1_S3, internal, instance=f1
 2767, 3251, 3260, 3265, 3364, 3512, 3516, 3541, 3542, 3543, 3591, 3594, 3596, 3838, 3845, 3860
 3868, 3870, 3881, 3884, 3892, 3914, 3968, 3979, 3994, 4004, 4045, 4203, 4266, 4290
*Elset, elset=_CP-1-f1_S1, internal, instance=f1
 2770, 3764, 3857, 3871, 3885, 4262
*Elset, elset=_CP-1-f1_S2, internal, instance=f1
 3849, 3851, 3853, 3858, 3867, 3933, 3937, 4228
*Surface, type=ELEMENT, name=CP-1-f1
_CP-1-f1_S4, S4
_CP-1-f1_S3, S3
_CP-1-f1_S2, S2
_CP-1-f1_S1, S1
*Elset, elset=_CP-2-f1_S3, internal, instance=f1
  221,  289,  302,  457,  615,  771,  773,  799,  828,  904, 1039, 1059, 1102, 1201, 1209, 1257
 1362, 1371, 1372, 1399, 1431, 1446, 1454, 1469, 1550, 1577, 1702, 1811, 1826, 1911, 1969, 1976
 2013, 2017, 2024, 2032, 2034, 2043, 2048, 2049, 2053, 2054, 2075, 2077, 2079, 2107, 2143
*Elset, elset=_CP-2-f1_S1, internal, instance=f1
 1971,
*Elset, elset=_CP-2-f1_S2, internal, instance=f1
 1999,
*Surface, type=ELEMENT, name=CP-2-f1
_CP-2-f1_S3, S3
_CP-2-f1_S1, S1
_CP-2-f1_S2, S2
*Elset, elset=_CP-3-f1_S3, internal, instance=f1
  110, 1191, 1313, 1434, 1442, 1461, 1488, 1606, 1620, 1621, 1634, 1643, 1646, 1650, 1651, 1799
 1808, 1813, 1815, 1818, 1827, 1830, 1831, 1836, 1838, 1841, 1843, 1846, 1847, 1849, 1850, 1859
 1863, 1867, 1877, 1900, 1902, 1904, 1912, 1929, 1931, 1932, 1943, 1985, 1998
*Elset, elset=_CP-3-f1_S4, internal, instance=f1
 618, 969
*Elset, elset=_CP-3-f1_S2, internal, instance=f1
 667,
*Elset, elset=_CP-3-f1_S1, internal, instance=f1
 1423,
*Surface, type=ELEMENT, name=CP-3-f1
_CP-3-f1_S3, S3
_CP-3-f1_S4, S4
_CP-3-f1_S2, S2
_CP-3-f1_S1, S1
*Elset, elset=_CP-4-f1_S3, internal, instance=f1
 7116, 7435, 7720, 7721, 7879, 7925, 7955, 7973, 8221, 8222, 8247, 8271, 8274, 8299, 8300, 8496
 8535, 8541, 8546, 8558, 8560, 8561, 8563, 8566, 8575, 8587, 8590, 8593, 8610, 8614, 8622, 8628
 8629,
*Elset, elset=_CP-4-f1_S1, internal, instance=f1
 7485, 8568, 8572, 8635
*Elset, elset=_CP-4-f1_S2, internal, instance=f1
 8116, 8286, 8333, 8429, 8549, 8573, 8626
*Elset, elset=_CP-4-f1_S4, internal, instance=f1
 8229, 8349, 8364, 8522, 8578
*Surface, type=ELEMENT, name=CP-4-f1
_CP-4-f1_S3, S3
_CP-4-f1_S1, S1
_CP-4-f1_S2, S2
_CP-4-f1_S4, S4
*Elset, elset=_CP-5-f1_S3, internal, instance=f1
   80,  166,  277,  720,  740,  806,  850, 1227, 1238, 1341, 1439, 1534, 1537, 1556, 1598, 1608
 1628, 1629, 1631, 1632, 1633, 1642, 1648, 1659, 1664, 1668, 1680, 1703, 1705, 1708, 1712, 1718
 1720, 1858, 1909, 1910, 1916, 1919, 1921, 1922, 1926, 1941, 1945, 1951, 1953, 1964, 1966, 1973
 1979, 1984, 1986, 2035, 2040, 2047, 2167
*Elset, elset=_CP-5-f1_S4, internal, instance=f1
 1438,
*Elset, elset=_CP-5-f1_S2, internal, instance=f1
 1277, 1842
*Surface, type=ELEMENT, name=CP-5-f1
_CP-5-f1_S3, S3
_CP-5-f1_S4, S4
_CP-5-f1_S2, S2
*Elset, elset=_CP-6-f1_S3, internal, instance=f1
 7808, 8181, 8268, 8288, 8314, 8388, 8423, 8441, 8447, 8452, 8454, 8455, 8474, 8481, 8498, 8509
 8521, 8523, 8524, 8527, 8528, 8529, 8533, 8534, 8548, 8576
*Elset, elset=_CP-6-f1_S4, internal, instance=f1
 8494,
*Elset, elset=_CP-6-f1_S2, internal, instance=f1
 8501,
*Elset, elset=_CP-6-f1_S1, internal, instance=f1
 8512,
*Surface, type=ELEMENT, name=CP-6-f1
_CP-6-f1_S3, S3
_CP-6-f1_S4, S4
_CP-6-f1_S2, S2
_CP-6-f1_S1, S1
*Elset, elset=_CP-7-f1_S3, internal, instance=f1
   80,  166,  277,  720,  740,  806,  850, 1227, 1238, 1341, 1439, 1534, 1537, 1556, 1598, 1608
 1628, 1629, 1631, 1632, 1633, 1642, 1648, 1659, 1664, 1668, 1680, 1703, 1705, 1708, 1712, 1718
 1720, 1858, 1909, 1910, 1916, 1919, 1921, 1922, 1926, 1941, 1945, 1951, 1953, 1964, 1966, 1973
 1979, 1984, 1986, 2035, 2040, 2047, 2167
*Elset, elset=_CP-7-f1_S4, internal, instance=f1
 1438,
*Elset, elset=_CP-7-f1_S2, internal, instance=f1
 1277, 1842
*Surface, type=ELEMENT, name=CP-7-f1
_CP-7-f1_S3, S3
_CP-7-f1_S4, S4
_CP-7-f1_S2, S2
*Elset, elset=_CP-8-f1_S4, internal, instance=f1
 2607,
*Elset, elset=_CP-8-f1_S3, internal, instance=f1
 2716, 2734, 3286, 3648, 3651, 3657, 3659, 3663, 3673, 3674, 3681, 3687, 3697, 3700, 3702, 3703
 3704, 3709, 3712, 3742, 3808, 3958, 3971, 4039
*Elset, elset=_CP-8-f1_S1, internal, instance=f1
 3714, 3740
*Elset, elset=_CP-8-f1_S2, internal, instance=f1
 3727, 3730
*Surface, type=ELEMENT, name=CP-8-f1
_CP-8-f1_S4, S4
_CP-8-f1_S3, S3
_CP-8-f1_S2, S2
_CP-8-f1_S1, S1
*Elset, elset=_CP-9-f1_S4, internal, instance=f1
 4460, 4476, 6075, 6110, 6119, 6192, 6208
*Elset, elset=_CP-9-f1_S3, internal, instance=f1
 4600, 4857, 5265, 5272, 5356, 5448, 5449, 5584, 5630, 5648, 5725, 5729, 5732, 5733, 5748, 5793
 5810, 5865, 5980, 6062, 6087, 6089, 6093, 6104, 6111, 6117, 6118, 6180, 6274, 6434
*Elset, elset=_CP-9-f1_S1, internal, instance=f1
 4950, 6065, 6076, 6084, 6125, 6452
*Elset, elset=_CP-9-f1_S2, internal, instance=f1
 5379, 5475, 6057, 6061, 6072, 6493
*Surface, type=ELEMENT, name=CP-9-f1
_CP-9-f1_S4, S4
_CP-9-f1_S3, S3
_CP-9-f1_S2, S2
_CP-9-f1_S1, S1
*Elset, elset=_CP-10-f1_S3, internal, instance=f1
 2210, 2223, 2334, 2401, 2455, 2563, 2580, 2694, 2738, 2749, 2776, 2811, 2825, 2830, 2882, 2883
 3057, 3139, 3189, 3363, 3431, 3452, 3585, 3588, 3636, 3679, 3811, 4007, 4010, 4016, 4027, 4054
 4083, 4088, 4112, 4116, 4146, 4162, 4166, 4170, 4173, 4175, 4224, 4285, 4297, 4300, 4304
*Elset, elset=_CP-10-f1_S2, internal, instance=f1
 2671,
*Elset, elset=_CP-10-f1_S1, internal, instance=f1
 4197,
*Surface, type=ELEMENT, name=CP-10-f1
_CP-10-f1_S3, S3
_CP-10-f1_S2, S2
_CP-10-f1_S1, S1
*Elset, elset=_CP-11-f1_S3, internal, instance=f1
 2713, 2733, 3287, 3391, 3493, 3645, 3669, 3675, 3686, 3705, 3714, 3715, 3721, 3725, 3727, 3730
 3731, 3732, 3735, 3739, 3842, 3908, 3939, 3940, 3993, 4289
*Elset, elset=_CP-11-f1_S1, internal, instance=f1
 3706,
*Elset, elset=_CP-11-f1_S2, internal, instance=f1
 3720, 3740
*Surface, type=ELEMENT, name=CP-11-f1
_CP-11-f1_S3, S3
_CP-11-f1_S1, S1
_CP-11-f1_S2, S2
*Elset, elset=_CP-12-f1_S3, internal, instance=f1
 6634, 6918, 7078, 7164, 7274, 7292, 7349, 7761, 7966, 8043, 8525, 8586, 8596, 8598, 8615, 8619
 8620, 8624, 8627, 8632, 8639, 8642, 8663
*Elset, elset=_CP-12-f1_S4, internal, instance=f1
 7808, 8512
*Elset, elset=_CP-12-f1_S1, internal, instance=f1
 8288, 8529
*Elset, elset=_CP-12-f1_S2, internal, instance=f1
 8353, 8576
*Surface, type=ELEMENT, name=CP-12-f1
_CP-12-f1_S3, S3
_CP-12-f1_S4, S4
_CP-12-f1_S2, S2
_CP-12-f1_S1, S1
*Elset, elset=_CP-13-f1_S3, internal, instance=f1
 2446, 2566, 2676, 2826, 3072, 3075, 3169, 3170, 3227, 3267, 3276, 3311, 3420, 3426, 3521, 3558
 3570, 3587, 3653, 3666, 3677, 3695, 3724, 3738, 3751, 3758, 3761, 3771, 3785, 3788, 3794, 3820
 3822, 3823, 3826, 3828, 3906, 4026, 4029, 4032, 4033, 4034, 4040, 4052, 4069, 4073, 4075, 4101
 4119, 4225, 4303, 4314
*Elset, elset=_CP-13-f1_S4, internal, instance=f1
 2317, 2577, 3007, 3798
*Elset, elset=_CP-13-f1_S1, internal, instance=f1
 3150,
*Elset, elset=_CP-13-f1_S2, internal, instance=f1
 3634,
*Surface, type=ELEMENT, name=CP-13-f1
_CP-13-f1_S3, S3
_CP-13-f1_S4, S4
_CP-13-f1_S2, S2
_CP-13-f1_S1, S1
*Elset, elset=_CP-14-f1_S3, internal, instance=f1
 4429, 4501, 4676, 4865, 5361, 5582, 5778, 5835, 5841, 5848, 5856, 5857, 5880, 5890, 5891, 5898
 5901, 5905, 5918, 5932, 5953, 5986, 6228
*Elset, elset=_CP-14-f1_S4, internal, instance=f1
 5843, 5904
*Elset, elset=_CP-14-f1_S1, internal, instance=f1
 5902, 5928
*Elset, elset=_CP-14-f1_S2, internal, instance=f1
 5913, 6223
*Surface, type=ELEMENT, name=CP-14-f1
_CP-14-f1_S3, S3
_CP-14-f1_S4, S4
_CP-14-f1_S2, S2
_CP-14-f1_S1, S1
*Elset, elset=_CP-15-f1_S1, internal, instance=f1
 4841,
*Elset, elset=_CP-15-f1_S3, internal, instance=f1
 4907, 4969, 4972, 4974, 4989, 4994, 5029, 5260, 5436, 5526, 5530, 5726, 5937, 5942, 5950, 5961
 5962, 5971, 5973, 6003, 6009, 6115, 6134, 6135, 6137, 6142, 6147, 6154, 6157, 6158, 6159, 6161
 6162, 6166, 6168, 6172, 6181, 6182, 6185, 6188, 6225, 6236, 6238, 6260, 6262, 6267, 6270
*Elset, elset=_CP-15-f1_S4, internal, instance=f1
 6227,
*Surface, type=ELEMENT, name=CP-15-f1
_CP-15-f1_S1, S1
_CP-15-f1_S3, S3
_CP-15-f1_S4, S4
*Elset, elset=_CP-16-f1_S4, internal, instance=f1
  8710,  8851, 10311, 10406, 10514, 10682, 10701
*Elset, elset=_CP-16-f1_S2, internal, instance=f1
  8750, 10442, 10610, 10612, 10694, 10722
*Elset, elset=_CP-16-f1_S1, internal, instance=f1
  9290, 10693
*Elset, elset=_CP-16-f1_S3, internal, instance=f1
  9781,  9784,  9890,  9960, 10078, 10080, 10119, 10144, 10328, 10356, 10361, 10378, 10398, 10428, 10430, 10463
 10480, 10495, 10504, 10601, 10681, 10686, 10712, 10713, 10719, 10721, 10729, 10733, 10744, 10750, 10758, 10760
 10761, 10772
*Surface, type=ELEMENT, name=CP-16-f1
_CP-16-f1_S4, S4
_CP-16-f1_S2, S2
_CP-16-f1_S1, S1
_CP-16-f1_S3, S3
*Elset, elset=_CP-17-f1_S3, internal, instance=f1
 4356, 4569, 4570, 4627, 4773, 4914, 5007, 5136, 5402, 5425, 5478, 5676, 5680, 5714, 5755, 5832
 5839, 5860, 5862, 5886, 5924, 5941, 5945, 5949, 5951, 5952, 5958, 5959, 5963, 5976, 5978, 6008
 6016, 6017, 6023, 6032, 6034, 6103, 6235, 6241, 6244, 6245, 6250, 6256, 6257, 6269, 6271, 6284
 6301, 6303, 6304, 6318, 6334, 6336, 6352, 6361
*Elset, elset=_CP-17-f1_S1, internal, instance=f1
 5477,
*Elset, elset=_CP-17-f1_S4, internal, instance=f1
 5917,
*Surface, type=ELEMENT, name=CP-17-f1
_CP-17-f1_S3, S3
_CP-17-f1_S1, S1
_CP-17-f1_S4, S4
*Elset, elset=_CP-18-f1_S3, internal, instance=f1
  8768,  9195,  9576, 10022, 10473, 10505, 10618, 10622, 10623, 10628, 10636, 10639, 10644, 10656, 10670, 10673
 10677, 10678, 10691, 10703, 10709, 10710, 10711, 10716, 10735, 10745, 10762
*Elset, elset=_CP-18-f1_S1, internal, instance=f1
 8965,
*Elset, elset=_CP-18-f1_S2, internal, instance=f1
 10683,
*Surface, type=ELEMENT, name=CP-18-f1
_CP-18-f1_S3, S3
_CP-18-f1_S1, S1
_CP-18-f1_S2, S2
*Elset, elset=_CP-19-f1_S3, internal, instance=f1
 7180, 7353, 7702, 7704, 7705, 7787, 8084, 8092, 8093, 8099, 8110, 8111, 8177, 8184, 8189, 8194
 8211, 8243, 8272, 8277, 8297, 8298, 8308, 8310, 8315, 8316, 8319, 8320, 8323, 8329, 8343, 8350
 8372, 8379, 8380, 8386, 8387, 8390, 8400, 8408, 8412, 8430, 8446, 8472, 8636, 8665, 8670
*Elset, elset=_CP-19-f1_S1, internal, instance=f1
 8029,
*Elset, elset=_CP-19-f1_S4, internal, instance=f1
 8373,
*Surface, type=ELEMENT, name=CP-19-f1
_CP-19-f1_S3, S3
_CP-19-f1_S1, S1
_CP-19-f1_S4, S4
*Elset, elset=_CP-19-interlocking-1_S3, internal, instance=interlocking-1
  824,  880, 1334, 1336, 1339, 1451, 1572, 1664, 1678, 1686, 1693, 1700, 1715, 1750, 1754, 1759
 1828, 1835, 1862, 1908, 1998, 2006, 2020, 2021, 2023, 2025, 2046, 2062, 2066, 2067, 2072, 2076
 2077, 2081, 2101
*Elset, elset=_CP-19-interlocking-1_S1, internal, instance=interlocking-1
 1582, 1875, 2028, 2029
*Elset, elset=_CP-19-interlocking-1_S4, internal, instance=interlocking-1
 1654, 1682, 1699, 1804, 2039
*Elset, elset=_CP-19-interlocking-1_S2, internal, instance=interlocking-1
 1680, 1785, 1877, 2031, 2037
*Surface, type=ELEMENT, name=CP-19-interlocking-1
_CP-19-interlocking-1_S3, S3
_CP-19-interlocking-1_S1, S1
_CP-19-interlocking-1_S4, S4
_CP-19-interlocking-1_S2, S2
*Elset, elset=_CP-20-f1_S3, internal, instance=f1
 11115, 11318, 11414, 11429, 11761, 11951, 12141, 12243, 12247, 12268, 12282, 12518, 12579, 12613, 12625, 12635
 12666, 12738, 12741, 12774, 12866, 12869, 12911, 12916, 12921, 12926, 12941, 12942, 12950, 12955, 12956, 12962
 12966, 12967, 12981
*Elset, elset=_CP-20-f1_S1, internal, instance=f1
 11462, 12853, 12991
*Elset, elset=_CP-20-f1_S2, internal, instance=f1
 12416, 12619, 12707, 12720, 12852, 12917, 12931, 12979
*Elset, elset=_CP-20-f1_S4, internal, instance=f1
 12526, 12929, 12933
*Surface, type=ELEMENT, name=CP-20-f1
_CP-20-f1_S3, S3
_CP-20-f1_S1, S1
_CP-20-f1_S2, S2
_CP-20-f1_S4, S4
*Elset, elset=_CP-20-interlocking-1_S3, internal, instance=interlocking-1
 1460, 1547, 1702, 1794, 1805, 1886, 1892, 1897, 1900, 1920, 1941, 1942, 1948, 1949, 1955, 1964
 1967, 1969, 1975, 1985, 1991, 1995, 2002, 2026, 2121, 2135, 2147
*Elset, elset=_CP-20-interlocking-1_S2, internal, instance=interlocking-1
 1947,
*Elset, elset=_CP-20-interlocking-1_S1, internal, instance=interlocking-1
 1981,
*Surface, type=ELEMENT, name=CP-20-interlocking-1
_CP-20-interlocking-1_S3, S3
_CP-20-interlocking-1_S2, S2
_CP-20-interlocking-1_S1, S1
*Elset, elset=_CP-21-f1_S3, internal, instance=f1
 6539, 6612, 7002, 7255, 7257, 7395, 7399, 7457, 7476, 7642, 7785, 7860, 7909, 8032, 8034, 8047
 8086, 8095, 8097, 8100, 8101, 8109, 8126, 8128, 8132, 8145, 8165, 8167, 8171, 8172, 8178, 8191
 8252, 8264, 8281, 8354, 8382, 8393, 8414, 8415, 8416, 8419, 8422, 8439, 8445, 8448, 8458, 8484
 8517, 8605, 8658, 8661, 8669
*Elset, elset=_CP-21-f1_S2, internal, instance=f1
 7569, 8030, 8146
*Elset, elset=_CP-21-f1_S4, internal, instance=f1
 7691, 8485
*Surface, type=ELEMENT, name=CP-21-f1
_CP-21-f1_S3, S3
_CP-21-f1_S2, S2
_CP-21-f1_S4, S4
*Elset, elset=_CP-21-interlocking-1_S4, internal, instance=interlocking-1
  400, 1189, 1981, 2147
*Elset, elset=_CP-21-interlocking-1_S3, internal, instance=interlocking-1
  561,  614,  954, 1257, 1370, 1376, 1596, 1795, 1846, 1959, 1984, 1996, 2034, 2036, 2038, 2059
 2064, 2068, 2079, 2088, 2113, 2124
*Elset, elset=_CP-21-interlocking-1_S1, internal, instance=interlocking-1
 1794, 1975
*Elset, elset=_CP-21-interlocking-1_S2, internal, instance=interlocking-1
 2026,
*Surface, type=ELEMENT, name=CP-21-interlocking-1
_CP-21-interlocking-1_S4, S4
_CP-21-interlocking-1_S3, S3
_CP-21-interlocking-1_S2, S2
_CP-21-interlocking-1_S1, S1
*Elset, elset=_CP-22-f1_S3, internal, instance=f1
 12443, 12449, 12572, 12745, 12754, 12758, 12767, 12769, 12786, 12790, 12793, 12795, 12801, 12809, 12815, 12831
 12837, 12844, 12883, 12884, 12885, 12899, 12902, 12909, 12930, 12980, 12989, 13001
*Elset, elset=_CP-22-f1_S1, internal, instance=f1
 12901,
*Surface, type=ELEMENT, name=CP-22-f1
_CP-22-f1_S3, S3
_CP-22-f1_S1, S1
*Elset, elset=_CP-22-interlocking-1_S3, internal, instance=interlocking-1
   67,  511,  619,  660,  688,  768,  837, 1066, 1085, 1227, 1389, 1392, 1394, 1439, 1521, 1670
 1684, 1689, 1724, 1725, 1735, 1739, 1829, 1914, 1936, 2074, 2086, 2112, 2130, 2151
*Elset, elset=_CP-22-interlocking-1_S4, internal, instance=interlocking-1
  687, 1695, 1707, 2116, 2145
*Elset, elset=_CP-22-interlocking-1_S2, internal, instance=interlocking-1
 1287, 1652, 1681, 1685, 1688, 1704, 1761, 2077, 2093, 2115
*Elset, elset=_CP-22-interlocking-1_S1, internal, instance=interlocking-1
 1693, 1705, 1750, 2081
*Surface, type=ELEMENT, name=CP-22-interlocking-1
_CP-22-interlocking-1_S3, S3
_CP-22-interlocking-1_S4, S4
_CP-22-interlocking-1_S2, S2
_CP-22-interlocking-1_S1, S1
*Elset, elset=_CP-23-f1_S3, internal, instance=f1
 13559, 13652, 13661, 13715, 13929, 14020, 14121, 14206, 14732, 14939, 14991, 15008, 15009, 15011, 15034, 15083
 15093, 15105, 15108, 15116, 15122, 15142
*Elset, elset=_CP-23-f1_S1, internal, instance=f1
 13651, 15020
*Elset, elset=_CP-23-f1_S4, internal, instance=f1
 14914, 14927, 15015, 15141
*Elset, elset=_CP-23-f1_S2, internal, instance=f1
 14990,
*Surface, type=ELEMENT, name=CP-23-f1
_CP-23-f1_S3, S3
_CP-23-f1_S1, S1
_CP-23-f1_S4, S4
_CP-23-f1_S2, S2
*Elset, elset=_CP-23-interlocking-1_S3, internal, instance=interlocking-1
  528,  628,  774, 1229, 1488, 1493, 1502, 1503, 1517, 1525, 1527, 1532, 1534, 1537, 1540, 1543
 1562, 1583, 1633, 1634, 1650, 1764, 1885, 2134
*Elset, elset=_CP-23-interlocking-1_S1, internal, instance=interlocking-1
 1536, 1541, 1545, 1563
*Elset, elset=_CP-23-interlocking-1_S4, internal, instance=interlocking-1
 1831,
*Surface, type=ELEMENT, name=CP-23-interlocking-1
_CP-23-interlocking-1_S3, S3
_CP-23-interlocking-1_S1, S1
_CP-23-interlocking-1_S4, S4
*Elset, elset=_CP-24-f1_S3, internal, instance=f1
  8829,  8862,  9472,  9667,  9906, 10190, 10229, 10235, 10236, 10238, 10240, 10242, 10246, 10248, 10252, 10253
 10258, 10275, 10284, 10444, 10451, 10453, 10532, 10576
*Elset, elset=_CP-24-f1_S4, internal, instance=f1
  8830, 10145
*Elset, elset=_CP-24-f1_S1, internal, instance=f1
 10228, 10474
*Elset, elset=_CP-24-f1_S2, internal, instance=f1
 10255,
*Surface, type=ELEMENT, name=CP-24-f1
_CP-24-f1_S3, S3
_CP-24-f1_S4, S4
_CP-24-f1_S2, S2
_CP-24-f1_S1, S1
*Elset, elset=_CP-24-interlocking-1_S3, internal, instance=interlocking-1
   14,   75,  233,  252,  267,  495,  500,  557,  611,  612,  635,  684,  711,  903,  926,  951
 1053, 1126, 1184, 1194, 1269, 1270, 1383, 1422, 1427, 1461, 1462, 1463, 1480, 1566, 1610, 1713
 1814, 1824, 1902, 1909, 1931, 1932, 1965, 1972, 1982, 2042, 2078, 2090, 2099, 2107, 2114, 2144
*Elset, elset=_CP-24-interlocking-1_S1, internal, instance=interlocking-1
 2000,
*Surface, type=ELEMENT, name=CP-24-interlocking-1
_CP-24-interlocking-1_S3, S3
_CP-24-interlocking-1_S1, S1
*Elset, elset=_CP-25-f1_S4, internal, instance=f1
 9248,
*Elset, elset=_CP-25-f1_S3, internal, instance=f1
  9298,  9317,  9344,  9471,  9550,  9795,  9832,  9866, 10114, 10257, 10268, 10272, 10276, 10283, 10286, 10287
 10313, 10335, 10346, 10348, 10350, 10436, 10448, 10454, 10456, 10459, 10469, 10474, 10484, 10492, 10493, 10494
 10497, 10513, 10528, 10529, 10536, 10542, 10543, 10568, 10593, 10594, 10757, 10776, 10815
*Elset, elset=_CP-25-f1_S2, internal, instance=f1
 9778,
*Elset, elset=_CP-25-f1_S1, internal, instance=f1
 10516, 10577
*Surface, type=ELEMENT, name=CP-25-f1
_CP-25-f1_S4, S4
_CP-25-f1_S3, S3
_CP-25-f1_S2, S2
_CP-25-f1_S1, S1
*Elset, elset=_CP-25-interlocking-1_S3, internal, instance=interlocking-1
  205,  465,  499,  560,  778,  797, 1063, 1098, 1112, 1215, 1300, 1424, 1430, 1483, 1508, 1509
 1511, 1513, 1514, 1523, 1526, 1559, 1564, 1575, 1576, 1587, 1588, 1591, 1611, 1614, 1648, 1649
 1653, 1657, 1662, 1852, 1865, 1866, 1873, 1880, 1882, 1883, 1888, 1910, 1912, 1923, 1924, 1934
 1937, 2027, 2061, 2069, 2094, 2128
*Elset, elset=_CP-25-interlocking-1_S4, internal, instance=interlocking-1
 1378, 2119
*Elset, elset=_CP-25-interlocking-1_S2, internal, instance=interlocking-1
 1506,
*Elset, elset=_CP-25-interlocking-1_S1, internal, instance=interlocking-1
 1512,
*Surface, type=ELEMENT, name=CP-25-interlocking-1
_CP-25-interlocking-1_S3, S3
_CP-25-interlocking-1_S4, S4
_CP-25-interlocking-1_S2, S2
_CP-25-interlocking-1_S1, S1
*Elset, elset=_CP-26-f1_S4, internal, instance=f1
 15366, 16287, 16616, 16777, 16867, 16987, 17236
*Elset, elset=_CP-26-f1_S3, internal, instance=f1
 16098, 16300, 16515, 16546, 16551, 16658, 16887, 16893, 16945, 16950, 16954, 16970, 17030, 17051, 17089, 17138
 17192, 17193, 17196, 17201, 17224, 17228, 17235, 17241, 17248, 17254, 17255, 17262, 17263, 17268, 17269, 17271
 17279, 17292
*Elset, elset=_CP-26-f1_S2, internal, instance=f1
 16852, 16906, 17074, 17076, 17195, 17223
*Elset, elset=_CP-26-f1_S1, internal, instance=f1
 17209, 17264
*Surface, type=ELEMENT, name=CP-26-f1
_CP-26-f1_S4, S4
_CP-26-f1_S3, S3
_CP-26-f1_S2, S2
_CP-26-f1_S1, S1
*Elset, elset=_CP-26-interlocking-1_S3, internal, instance=interlocking-1
  555,  627, 1322, 1323, 1343, 1349, 1469, 1484, 1519, 1536, 1541, 1544, 1545, 1549, 1550, 1551
 1552, 1553, 1554, 1556, 1558, 1560, 1565, 1751, 1811, 2126
*Elset, elset=_CP-26-interlocking-1_S1, internal, instance=interlocking-1
 609,
*Elset, elset=_CP-26-interlocking-1_S2, internal, instance=interlocking-1
 1542, 1563
*Surface, type=ELEMENT, name=CP-26-interlocking-1
_CP-26-interlocking-1_S3, S3
_CP-26-interlocking-1_S1, S1
_CP-26-interlocking-1_S2, S2
*Elset, elset=_CP-27-f1_S3, internal, instance=f1
  8900,  9124,  9334,  9351,  9429,  9585,  9655,  9676,  9738,  9755,  9836, 10019, 10020, 10069, 10098, 10177
 10196, 10202, 10204, 10207, 10215, 10216, 10218, 10250, 10265, 10267, 10270, 10278, 10281, 10282, 10285, 10295
 10331, 10340, 10344, 10518, 10527, 10538, 10541, 10563, 10570, 10574, 10575, 10582, 10586, 10590, 10598, 10605
 10608, 10631, 10664, 10687, 10800, 10802
*Elset, elset=_CP-27-f1_S2, internal, instance=f1
  9882, 10553
*Elset, elset=_CP-27-f1_S4, internal, instance=f1
 10416, 10651
*Surface, type=ELEMENT, name=CP-27-f1
_CP-27-f1_S3, S3
_CP-27-f1_S2, S2
_CP-27-f1_S4, S4
*Elset, elset=_CP-27-interlocking-1_S3, internal, instance=interlocking-1
  205,  465,  499,  560,  778,  797, 1063, 1098, 1112, 1215, 1300, 1424, 1430, 1483, 1508, 1509
 1511, 1513, 1514, 1523, 1526, 1559, 1564, 1575, 1576, 1587, 1588, 1591, 1611, 1614, 1648, 1649
 1653, 1657, 1662, 1852, 1865, 1866, 1873, 1880, 1882, 1883, 1888, 1910, 1912, 1923, 1924, 1934
 1937, 2027, 2061, 2069, 2094, 2128
*Elset, elset=_CP-27-interlocking-1_S4, internal, instance=interlocking-1
 1378, 2119
*Elset, elset=_CP-27-interlocking-1_S2, internal, instance=interlocking-1
 1506,
*Elset, elset=_CP-27-interlocking-1_S1, internal, instance=interlocking-1
 1512,
*Surface, type=ELEMENT, name=CP-27-interlocking-1
_CP-27-interlocking-1_S3, S3
_CP-27-interlocking-1_S4, S4
_CP-27-interlocking-1_S2, S2
_CP-27-interlocking-1_S1, S1
*Elset, elset=_CP-28-f1_S3, internal, instance=f1
 16512, 17002, 17091, 17098, 17103, 17121, 17123, 17134, 17139, 17155, 17161, 17174, 17175, 17179, 17180, 17185
 17194, 17205, 17218, 17233, 17234, 17238, 17245, 17246, 17289, 17337
*Elset, elset=_CP-28-f1_S4, internal, instance=f1
 17101, 17151, 17200
*Surface, type=ELEMENT, name=CP-28-f1
_CP-28-f1_S3, S3
_CP-28-f1_S4, S4
*Elset, elset=_CP-28-interlocking-1_S3, internal, instance=interlocking-1
   32,  715, 1003, 1153, 1171, 1173, 1402, 1539, 1569, 1580, 1581, 1590, 1593, 1599, 1600, 1655
 1658, 1740, 1744, 1774, 1776, 1782, 1783, 1786, 1788, 1791, 1793, 1797, 1802, 1807, 1810, 1821
 1822, 1837, 1848, 1853, 1854, 1855, 1858, 1861, 1927, 1935, 2008, 2103, 2106, 2108
*Elset, elset=_CP-28-interlocking-1_S1, internal, instance=interlocking-1
  589, 1217
*Elset, elset=_CP-28-interlocking-1_S4, internal, instance=interlocking-1
 960,
*Surface, type=ELEMENT, name=CP-28-interlocking-1
_CP-28-interlocking-1_S3, S3
_CP-28-interlocking-1_S1, S1
_CP-28-interlocking-1_S4, S4
*Elset, elset=_CP-29-f1_S1, internal, instance=f1
 13274, 14709, 14721
*Elset, elset=_CP-29-f1_S3, internal, instance=f1
 13494, 13537, 13541, 13650, 13743, 13981, 14064, 14104, 14110, 14112, 14115, 14289, 14303, 14378, 14396, 14400
 14402, 14690, 14695, 14708, 14729, 14741, 14760, 14770, 14829, 14895, 15061, 15089, 15126, 15139, 15167
*Elset, elset=_CP-29-f1_S2, internal, instance=f1
 14330, 14694, 14703, 14706, 14720, 14736, 14785, 15109, 15121
*Elset, elset=_CP-29-f1_S4, internal, instance=f1
 14667, 14711, 14725, 14771, 15005, 15110
*Surface, type=ELEMENT, name=CP-29-f1
_CP-29-f1_S1, S1
_CP-29-f1_S3, S3
_CP-29-f1_S2, S2
_CP-29-f1_S4, S4
*Elset, elset=_CP-30-f1_S3, internal, instance=f1
 10903, 10939, 11178, 11186, 11412, 11486, 11568, 11590, 11607, 11683, 11747, 11750, 11772, 11865, 11902, 12019
 12123, 12127, 12165, 12288, 12296, 12297, 12325, 12391, 12420, 12513, 12529, 12551, 12558, 12630, 12632, 12746
 12753, 12760, 12764, 12841, 12858, 12886, 12889, 12890, 12904, 12943, 12949, 12951, 12976
*Elset, elset=_CP-30-f1_S4, internal, instance=f1
 12671, 12833
*Elset, elset=_CP-30-f1_S2, internal, instance=f1
 12865, 12961
*Surface, type=ELEMENT, name=CP-30-f1
_CP-30-f1_S3, S3
_CP-30-f1_S4, S4
_CP-30-f1_S2, S2
*Elset, elset=_CP-31-f1_S4, internal, instance=f1
 10935, 10940, 11386
*Elset, elset=_CP-31-f1_S1, internal, instance=f1
 10938, 12260
*Elset, elset=_CP-31-f1_S3, internal, instance=f1
 10963, 11104, 11153, 11406, 11413, 11467, 11760, 11985, 11987, 12002, 12017, 12119, 12271, 12333, 12334, 12375
 12376, 12380, 12388, 12438, 12446, 12456, 12462, 12467, 12470, 12474, 12476, 12485, 12487, 12508, 12520, 12528
 12535, 12539, 12714, 12762, 12765, 12772, 12773, 12780, 12781, 12785, 12787, 12799, 12805, 12808, 12813, 12817
 12824, 12845, 12859, 12947
*Elset, elset=_CP-31-f1_S2, internal, instance=f1
 12496,
*Surface, type=ELEMENT, name=CP-31-f1
_CP-31-f1_S4, S4
_CP-31-f1_S1, S1
_CP-31-f1_S2, S2
_CP-31-f1_S3, S3
*Elset, elset=_CP-32-f1_S4, internal, instance=f1
 13443, 13748, 14568
*Elset, elset=_CP-32-f1_S3, internal, instance=f1
 13687, 13751, 13987, 14125, 14158, 14504, 14516, 14522, 14523, 14528, 14531, 14541, 14546, 14557, 14561, 14564
 14570, 14626, 14658, 14792, 14806, 15063
*Elset, elset=_CP-32-f1_S1, internal, instance=f1
 14566, 14595
*Elset, elset=_CP-32-f1_S2, internal, instance=f1
 14578, 14583
*Surface, type=ELEMENT, name=CP-32-f1
_CP-32-f1_S4, S4
_CP-32-f1_S3, S3
_CP-32-f1_S2, S2
_CP-32-f1_S1, S1
*Elset, elset=_CP-33-f1_S3, internal, instance=f1
 13057, 13090, 13146, 13150, 13190, 13245, 13303, 13373, 13382, 13401, 13464, 13544, 13582, 13584, 13669, 13701
 13967, 13984, 14026, 14048, 14119, 14122, 14197, 14311, 14312, 14320, 14367, 14372, 14429, 14555, 14675, 14784
 14866, 14966, 14975, 14994, 14998, 15000, 15014, 15040, 15052, 15072, 15092, 15111, 15140, 15144, 15154
*Elset, elset=_CP-33-f1_S4, internal, instance=f1
 14973,
*Elset, elset=_CP-33-f1_S1, internal, instance=f1
 15044,
*Surface, type=ELEMENT, name=CP-33-f1
_CP-33-f1_S3, S3
_CP-33-f1_S4, S4
_CP-33-f1_S1, S1
*Elset, elset=_CP-34-f1_S4, internal, instance=f1
 15814, 16868, 16889, 16899, 16962, 17269
*Elset, elset=_CP-34-f1_S3, internal, instance=f1
 15841, 16286, 16289, 16292, 16510, 16535, 16581, 16583, 16593, 16596, 16659, 16815, 16873, 16874, 16878, 16886
 16901, 16904, 16912, 16929, 16931, 16935, 16957, 17016, 17258, 17300, 17305, 17310, 17321, 17325, 17334
*Elset, elset=_CP-34-f1_S2, internal, instance=f1
 16772, 16888, 16905, 17045, 17228, 17235, 17286, 17340
*Elset, elset=_CP-34-f1_S1, internal, instance=f1
 16887, 16894, 16896, 16950
*Surface, type=ELEMENT, name=CP-34-f1
_CP-34-f1_S4, S4
_CP-34-f1_S3, S3
_CP-34-f1_S2, S2
_CP-34-f1_S1, S1
*Elset, elset=_CP-35-f1_S3, internal, instance=f1
 13321, 13472, 13500, 13576, 13579, 13581, 13660, 13779, 13865, 13934, 14249, 14279, 14284, 14355, 14358, 14362
 14534, 14550, 14551, 14575, 14592, 14605, 14612, 14616, 14617, 14628, 14629, 14635, 14639, 14643, 14678, 14682
 14683, 14872, 14882, 14887, 14894, 14902, 14920, 14925, 14929, 14944, 14953, 14956, 14961, 14964, 14978, 15001
 15056, 15080, 15107, 15131
*Elset, elset=_CP-35-f1_S4, internal, instance=f1
 13801, 14455, 14908, 15161
*Elset, elset=_CP-35-f1_S2, internal, instance=f1
 14497,
*Elset, elset=_CP-35-f1_S1, internal, instance=f1
 13875,
*Surface, type=ELEMENT, name=CP-35-f1
_CP-35-f1_S3, S3
_CP-35-f1_S4, S4
_CP-35-f1_S2, S2
_CP-35-f1_S1, S1
*Elset, elset=_CP-36-f1_S3, internal, instance=f1
 15401, 15897, 15941, 16229, 16533, 16592, 16684, 16685, 16692, 16698, 16716, 16723, 16724, 16734, 16737, 16760
 16792, 16872, 16949, 16971, 17028, 17029, 17036, 17086
*Elset, elset=_CP-36-f1_S1, internal, instance=f1
 16732, 16735, 16738, 16744, 16761
*Surface, type=ELEMENT, name=CP-36-f1
_CP-36-f1_S3, S3
_CP-36-f1_S1, S1
*Elset, elset=_CP-37-f1_S3, internal, instance=f1
 2428, 2741, 2963, 2987, 2999, 3076, 3380, 3658, 3736, 3743, 3745, 3746, 3757, 3765, 3766, 3773
 3781, 3799, 3896, 3909, 3923, 3929, 3936, 3945, 3948, 3952, 3953, 3955, 3956, 3957, 3961, 3964
 3965, 3975, 3995, 3999, 4001, 4003, 4008, 4020, 4023, 4035, 4041, 4086, 4109, 4284, 4315
*Elset, elset=_CP-37-f1_S4, internal, instance=f1
 3379, 4006
*Surface, type=ELEMENT, name=CP-37-f1
_CP-37-f1_S3, S3
_CP-37-f1_S4, S4
*Elset, elset=_CP-38-f1_S3, internal, instance=f1
 2446, 2566, 2676, 2826, 3072, 3075, 3169, 3170, 3227, 3267, 3276, 3311, 3420, 3426, 3521, 3558
 3570, 3587, 3653, 3666, 3677, 3695, 3724, 3738, 3751, 3758, 3761, 3771, 3785, 3788, 3794, 3820
 3822, 3823, 3826, 3828, 3906, 4026, 4029, 4032, 4033, 4034, 4040, 4052, 4069, 4073, 4075, 4101
 4119, 4225, 4303, 4314
*Elset, elset=_CP-38-f1_S4, internal, instance=f1
 2317, 2577, 3007, 3798
*Elset, elset=_CP-38-f1_S1, internal, instance=f1
 3150,
*Elset, elset=_CP-38-f1_S2, internal, instance=f1
 3634,
*Surface, type=ELEMENT, name=CP-38-f1
_CP-38-f1_S3, S3
_CP-38-f1_S4, S4
_CP-38-f1_S2, S2
_CP-38-f1_S1, S1
*Elset, elset=_CP-39-f1_S3, internal, instance=f1
 4537, 4975, 5111, 5183, 5360, 5642, 5852, 5868, 5902, 5909, 5913, 5919, 5920, 5923, 5927, 5929
 5931, 6146, 6148, 6155, 6200, 6242, 6246, 6485
*Elset, elset=_CP-39-f1_S1, internal, instance=f1
 5866,
*Elset, elset=_CP-39-f1_S2, internal, instance=f1
 5903, 5922, 5928
*Elset, elset=_CP-39-f1_S4, internal, instance=f1
 6149,
*Surface, type=ELEMENT, name=CP-39-f1
_CP-39-f1_S3, S3
_CP-39-f1_S1, S1
_CP-39-f1_S2, S2
_CP-39-f1_S4, S4
*Elset, elset=_CP-40-f1_S3, internal, instance=f1
 6508, 6520, 6553, 6582, 6683, 6701, 6758, 6763, 6768, 6855, 6857, 6859, 6908, 6956, 7074, 7172
 7179, 7322, 7326, 7647, 7714, 7717, 7726, 7747, 7810, 7947, 7965, 8138, 8143, 8317, 8377, 8384
 8405, 8413, 8495, 8503, 8515, 8516, 8536, 8544, 8565, 8591, 8606, 8644, 8662, 8672
*Elset, elset=_CP-40-f1_S1, internal, instance=f1
 6858, 8557
*Elset, elset=_CP-40-f1_S4, internal, instance=f1
 7403,
*Surface, type=ELEMENT, name=CP-40-f1
_CP-40-f1_S3, S3
_CP-40-f1_S1, S1
_CP-40-f1_S4, S4
*Elset, elset=_CP-41-f1_S3, internal, instance=f1
 6539, 6612, 7002, 7255, 7257, 7395, 7399, 7457, 7476, 7642, 7785, 7860, 7909, 8032, 8034, 8047
 8086, 8095, 8097, 8100, 8101, 8109, 8126, 8128, 8132, 8145, 8165, 8167, 8171, 8172, 8178, 8191
 8252, 8264, 8281, 8354, 8382, 8393, 8414, 8415, 8416, 8419, 8422, 8439, 8445, 8448, 8458, 8484
 8517, 8605, 8658, 8661, 8669
*Elset, elset=_CP-41-f1_S2, internal, instance=f1
 7569, 8030, 8146
*Elset, elset=_CP-41-f1_S4, internal, instance=f1
 7691, 8485
*Surface, type=ELEMENT, name=CP-41-f1
_CP-41-f1_S3, S3
_CP-41-f1_S2, S2
_CP-41-f1_S4, S4
*Elset, elset=_CP-42-f1_S3, internal, instance=f1
  9202,  9405,  9473,  9679,  9689,  9920,  9966,  9999, 10000, 10003, 10082, 10083, 10094, 10148, 10316, 10342
 10362, 10377, 10390, 10393, 10395, 10396, 10403, 10413, 10414, 10417, 10443, 10452, 10481, 10679, 10756, 10792
*Elset, elset=_CP-42-f1_S2, internal, instance=f1
 10305, 10373, 10381, 10385, 10394, 10398, 10440, 10498, 10765
*Elset, elset=_CP-42-f1_S1, internal, instance=f1
 10378, 10386, 10428, 10758
*Elset, elset=_CP-42-f1_S4, internal, instance=f1
 10382, 10388, 10471, 10557
*Surface, type=ELEMENT, name=CP-42-f1
_CP-42-f1_S3, S3
_CP-42-f1_S2, S2
_CP-42-f1_S4, S4
_CP-42-f1_S1, S1
*Elset, elset=_CP-43-f1_S3, internal, instance=f1
  8796,  9423,  9776, 10051, 10172, 10182, 10185, 10191, 10211, 10212, 10214, 10219, 10222, 10224, 10231, 10234
 10261, 10273, 10338, 10347, 10525, 10556
*Elset, elset=_CP-43-f1_S4, internal, instance=f1
  9413, 10236, 10240, 10252, 10259
*Elset, elset=_CP-43-f1_S1, internal, instance=f1
 10209, 10255
*Surface, type=ELEMENT, name=CP-43-f1
_CP-43-f1_S3, S3
_CP-43-f1_S4, S4
_CP-43-f1_S1, S1
*Elset, elset=_CP-44-f1_S3, internal, instance=f1
 11621, 11650, 11751, 11866, 12060, 12171, 12285, 12322, 12378, 12584, 12757, 12879, 12892, 12895, 12897, 12912
 12925, 12936, 12938, 12964, 12982, 12994, 12998
*Elset, elset=_CP-44-f1_S4, internal, instance=f1
 11714, 12745
*Elset, elset=_CP-44-f1_S2, internal, instance=f1
 12815, 13001
*Elset, elset=_CP-44-f1_S1, internal, instance=f1
 12837, 12863
*Surface, type=ELEMENT, name=CP-44-f1
_CP-44-f1_S3, S3
_CP-44-f1_S4, S4
_CP-44-f1_S2, S2
_CP-44-f1_S1, S1
*Elset, elset=_CP-45-f1_S3, internal, instance=f1
 14613, 14844, 14914, 14923, 14927, 14933, 14934, 14936, 14958, 14969, 14974, 14979, 14990, 14993, 14996, 15007
 15018, 15019, 15020, 15021, 15024, 15028, 15045, 15066, 15067, 15071, 15078, 15079
*Elset, elset=_CP-45-f1_S1, internal, instance=f1
 15017,
*Surface, type=ELEMENT, name=CP-45-f1
_CP-45-f1_S3, S3
_CP-45-f1_S1, S1
*Elset, elset=_CP-46-f1_S3, internal, instance=f1
 13753, 13807, 13944, 14153, 14215, 14366, 14381, 14419, 14421, 14709, 14710, 14719, 14754, 14762, 14771, 14773
 14782, 14795, 14808, 15029, 15032, 15036, 15041, 15048, 15054, 15069, 15081, 15085, 15090, 15104, 15109, 15110
 15113, 15120, 15129
*Elset, elset=_CP-46-f1_S2, internal, instance=f1
 13902, 14515, 14913, 15064, 15074
*Elset, elset=_CP-46-f1_S1, internal, instance=f1
 14622, 14911, 15042, 15043
*Elset, elset=_CP-46-f1_S4, internal, instance=f1
 14696, 14722, 14740, 14832, 15065
*Surface, type=ELEMENT, name=CP-46-f1
_CP-46-f1_S3, S3
_CP-46-f1_S2, S2
_CP-46-f1_S4, S4
_CP-46-f1_S1, S1
*Elset, elset=_Surf-73_S3, internal, instance=interlocking-1
   77,  112,  257,  265,  345,  352,  358,  457,  494,  526,  527,  548,  549,  564,  616,  662
 1033, 1044, 1102, 1141, 1177, 1191, 1210, 1236, 1239, 1243, 1282, 1326, 1327, 1380, 1382, 1437
 1442, 1447, 1467, 1473, 1474, 1477, 1481, 1482, 1492, 1504, 1524, 1529, 1567, 1573, 1579, 1595
 1603, 1606, 1617, 1622, 1631, 1632, 1642, 1772, 1778, 1847, 1851, 1872, 1878, 1887, 1894, 1895
 1905, 1906, 1913, 1916, 1919, 1921, 1926, 1940, 1943, 1944, 1954, 1958, 1966, 1968, 1973, 1978
 1979, 2058, 2087, 2100, 2109, 2152
*Elset, elset=_Surf-73_S2, internal, instance=interlocking-1
  437, 1379, 1435, 1469, 1484, 1511, 1515, 1611, 1888, 1981, 1995, 2084
*Elset, elset=_Surf-73_S4, internal, instance=interlocking-1
 1275, 1522, 1527, 1530, 1553, 1559, 1920, 2059
*Elset, elset=_Surf-73_S1, internal, instance=interlocking-1
  954, 1488, 1525, 1542, 1591, 1883, 1948, 1969, 1996, 2119
*Surface, type=ELEMENT, name=Surf-73
_Surf-73_S3, S3
_Surf-73_S2, S2
_Surf-73_S4, S4
_Surf-73_S1, S1
*End Assembly
** 
** MATERIALS
** 
*Material, name=high-strength
*Elastic
 2e+12, 0.3
** 
** INTERACTION PROPERTIES
** 
*Surface Interaction, name=IntProp-1
1.,
*Friction
0.,
*Surface Behavior, pressure-overclosure=HARD
** 
** INTERACTIONS
** 
** Interaction: CP-1-f1-f1
*Contact Pair, interaction=IntProp-1, type=SURFACE TO SURFACE
CP-2-f1, CP-1-f1
** Interaction: CP-2-f1-f1
*Contact Pair, interaction=IntProp-1, type=SURFACE TO SURFACE
CP-4-f1, CP-3-f1
** Interaction: CP-3-f1-f1
*Contact Pair, interaction=IntProp-1, type=SURFACE TO SURFACE
CP-6-f1, CP-5-f1
** Interaction: CP-4-f1-f1
*Contact Pair, interaction=IntProp-1, type=SURFACE TO SURFACE
CP-8-f1, CP-7-f1
** Interaction: CP-5-f1-f1
*Contact Pair, interaction=IntProp-1, type=SURFACE TO SURFACE
CP-10-f1, CP-9-f1
** Interaction: CP-6-f1-f1
*Contact Pair, interaction=IntProp-1, type=SURFACE TO SURFACE
CP-12-f1, CP-11-f1
** Interaction: CP-7-f1-f1
*Contact Pair, interaction=IntProp-1, type=SURFACE TO SURFACE
CP-14-f1, CP-13-f1
** Interaction: CP-8-f1-f1
*Contact Pair, interaction=IntProp-1, type=SURFACE TO SURFACE
CP-16-f1, CP-15-f1
** Interaction: CP-9-f1-f1
*Contact Pair, interaction=IntProp-1, type=SURFACE TO SURFACE
CP-18-f1, CP-17-f1
** Interaction: CP-10-f1-f1
*Contact Pair, interaction=IntProp-1, type=SURFACE TO SURFACE
CP-20-f1, CP-19-f1
** Interaction: CP-11-f1-f1
*Contact Pair, interaction=IntProp-1, type=SURFACE TO SURFACE
CP-22-f1, CP-21-f1
** Interaction: CP-12-f1-f1
*Contact Pair, interaction=IntProp-1, type=SURFACE TO SURFACE
CP-24-f1, CP-23-f1
** Interaction: CP-13-f1-f1
*Contact Pair, interaction=IntProp-1, type=SURFACE TO SURFACE
CP-26-f1, CP-25-f1
** Interaction: CP-14-f1-f1
*Contact Pair, interaction=IntProp-1, type=SURFACE TO SURFACE
CP-28-f1, CP-27-f1
** Interaction: CP-15-f1-f1
*Contact Pair, interaction=IntProp-1, type=SURFACE TO SURFACE
CP-30-f1, CP-29-f1
** Interaction: CP-16-f1-f1
*Contact Pair, interaction=IntProp-1, type=SURFACE TO SURFACE
CP-32-f1, CP-31-f1
** Interaction: CP-17-f1-f1
*Contact Pair, interaction=IntProp-1, type=SURFACE TO SURFACE
CP-34-f1, CP-33-f1
** Interaction: CP-18-f1-f1
*Contact Pair, interaction=IntProp-1, type=SURFACE TO SURFACE
CP-36-f1, CP-35-f1
** Interaction: CP-19-f1-interlocking-1
*Contact Pair, interaction=IntProp-1, type=SURFACE TO SURFACE
CP-19-interlocking-1, CP-37-f1
** Interaction: CP-20-f1-interlocking-1
*Contact Pair, interaction=IntProp-1, type=SURFACE TO SURFACE
CP-20-interlocking-1, CP-38-f1
** Interaction: CP-21-f1-interlocking-1
*Contact Pair, interaction=IntProp-1, type=SURFACE TO SURFACE
CP-21-interlocking-1, CP-39-f1
** Interaction: CP-22-interlocking-1-f1
*Contact Pair, interaction=IntProp-1, type=SURFACE TO SURFACE
CP-40-f1, CP-22-interlocking-1
** Interaction: CP-23-f1-interlocking-1
*Contact Pair, interaction=IntProp-1, type=SURFACE TO SURFACE
CP-23-interlocking-1, CP-41-f1
** Interaction: CP-24-interlocking-1-f1
*Contact Pair, interaction=IntProp-1, type=SURFACE TO SURFACE
CP-42-f1, CP-24-interlocking-1
** Interaction: CP-25-interlocking-1-f1
*Contact Pair, interaction=IntProp-1, type=SURFACE TO SURFACE
CP-43-f1, CP-25-interlocking-1
** Interaction: CP-26-interlocking-1-f1
*Contact Pair, interaction=IntProp-1, type=SURFACE TO SURFACE
CP-44-f1, CP-26-interlocking-1
** Interaction: CP-27-interlocking-1-f1
*Contact Pair, interaction=IntProp-1, type=SURFACE TO SURFACE
CP-45-f1, CP-27-interlocking-1
** Interaction: CP-28-interlocking-1-f1
*Contact Pair, interaction=IntProp-1, type=SURFACE TO SURFACE
CP-46-f1, CP-28-interlocking-1
** ----------------------------------------------------------------
** 
** STEP: Step-1
** 
*Step, name=Step-1, nlgeom=NO
*Static
1., 1., 1e-05, 1.
** 
** BOUNDARY CONDITIONS
** 
** Name: BC-1 Type: Symmetry/Antisymmetry/Encastre
*Boundary
Set-1, ENCASTRE
** 
** LOADS
** 
** Name: Load-1   Type: Pressure
*Dsload
Surf-73, P, 1.
** 
** OUTPUT REQUESTS
** 
*Restart, write, frequency=0
** 
** FIELD OUTPUT: F-Output-1
** 
*Output, field, variable=PRESELECT
** 
** HISTORY OUTPUT: H-Output-1
** 
*Output, history, variable=PRESELECT
*End Step
