*Heading
** Job name: interlocking-1g Model name: interlocking-1
** Generated by: Abaqus/CAE 2023
*Preprint, echo=NO, model=NO, history=NO, contact=NO
**
** PARTS
**
*Part, name=frame
*Node
      1,   8.99800014,   8.99800014,   1.41400003
      2,   9.99800014,   7.99800062,           0.
      3,   9.99800014,   7.99800014,   1.41400003
      4,          11.,   6.99800014,   1.41400003
      5,   8.99800014,          11.,   1.41400003
      6,   9.99800014,   9.99800014,           0.
      7,   9.99800014,   9.99800014,   1.41400003
      8,   9.99800014,   3.99799991,   1.41400003
      9,   9.99800014,   3.99799967,           0.
     10,          11.,           3.,   1.41400003
     11,   6.99800062,           3.,   1.41400003
     12,   5.99800062,   3.99799967,           0.
     13,   5.99800014,   3.99799991,   1.41400003
     14,   4.99800014,   4.99800014,   1.41400003
     15,          11.,          -1.,   1.41400003
     16,   9.99800014,          -2.,           0.
     17,   9.99800014,          -2.,   1.41400003
     18,   9.99800014, 2.38419005e-07,           0.
     19,   9.99800014,           2.,           0.
     20,   9.99800014,   5.99800062,           0.
** ... 6948 like lines cut
*Element, type=R3D3
1, 2470, 2465, 2473
20, 2482,  161,  162
40, 2499, 2492, 2498
60, 2506,  195,  196
80, 2518,  205,  206
100, 2530,  219,  220
120, 2547, 2540, 2546
140, 2569, 2561, 2567
172, 2589, 2591, 2584
204, 2611, 2613, 2604
236, 2622, 2621, 2619
237, 2620,  277,  278
238, 2623, 2614, 2615
257, 2632,  287,  288
277, 2657, 2659, 2651
309, 2679, 2681, 2673
341, 2703, 2696, 2701
373, 2709, 2704, 2712
374, 2711, 2710, 2708
375, 2706, 2713, 2714
** ... 450 like lines cut
*Element, type=R3D4
 2, 2468, 2467,  149,  150
 3, 2468, 2466, 2474, 2467
 4,  155, 2466, 2465,  154
 5, 2470,  153,  154, 2465
 6,  152,    2,  153, 2470
 7, 2466, 2468, 2473, 2465
 8,  157, 2474,  156,    3
 9, 2467, 2474, 2475, 2472
10,  148, 2472, 2469,  147
11,  147, 2469,  160,    1
12, 2466,  155,  156, 2474
13,  157,  158, 2475, 2474
14, 2471, 2475,  158,  159
15, 2471, 2469, 2472, 2475
16, 2473, 2468,  150,  151
17,  159,  160, 2469, 2471
18,  151,  152, 2470, 2473
19, 2472,  148,  149, 2467
21, 2478, 2487, 2480, 2479
22, 2480, 2487, 2486, 2476
** ... 6713 like lines cut
*Node
   6969,   7.99800014,   7.99800014,   1.41400003
*Nset, nset=frame-RefPt_, internal
6969, 
*Elset, elset=frame, generate
    1,  7203,     1
*End Part
**  
*Part, name=interlocking
*Node
      1,    1.9922291, -0.000169329942,           0.
      2, 0.000229089957,  -1.99216938,           0.
      3, 0.000229089957, -0.000169329956,           0.
      4,  0.996229112, -0.996169209,   1.40855682
      5, 0.000229089943, -0.000169329971,   1.40855658
      6,  0.996229053,  0.995830655,    1.4085567
      7,    1.9922291,  -1.99216938,           0.
      8,    1.9922291, -0.000169329956,    1.4085567
      9,   2.98822904, -0.996169269,    1.4085567
     10,    1.9922291,  -1.99216938,   1.40855658
     11, -0.000169329942,   -1.9922291,           0.
     12,  -1.99216938, -0.000229089957,           0.
     13, -0.000169329956, -0.000229089957,           0.
     14, -0.996169209, -0.996229112,   1.40855682
     15, -0.000169329971, -0.000229089943,   1.40855658
     16,  0.995830655, -0.996229053,    1.4085567
     17,  -1.99216938,   -1.9922291,           0.
     18, -0.000169329956,   -1.9922291,    1.4085567
     19, -0.996169269,  -2.98822904,    1.4085567
     20,  -1.99216938,   -1.9922291,   1.40855658
** ... 14138 like lines cut
*Element, type=C3D10
   1, 1213, 1214, 1215, 1216, 2130, 2129, 2128, 2132, 2131, 2133
   2, 1213, 1214, 1217, 1218, 2130, 2135, 2134, 2137, 2136, 2138
   3,  688, 1219,  689,  691, 2141, 2140, 2139, 2143, 2142, 2144
   4, 1220, 1221, 1222, 1223, 2147, 2146, 2145, 2149, 2148, 2150
   5, 1213, 1216, 1215, 1224, 2132, 2133, 2128, 2152, 2151, 2153
   6, 1225,  598,  599,   47, 2156, 2155, 2154, 2158, 2157, 2159
   7, 1226, 1222, 1224, 1213, 2162, 2161, 2160, 2164, 2163, 2152
   8, 1214, 1227, 1228, 1229, 2167, 2166, 2165, 2169, 2168, 2170
   9, 1214, 1228, 1227, 1216, 2165, 2166, 2167, 2131, 2171, 2172
  10, 1213, 1214, 1221, 1230, 2130, 2174, 2173, 2176, 2175, 2177
  11, 1214, 1231, 1230, 1215, 2179, 2178, 2175, 2129, 2180, 2181
  12, 1214, 1215, 1227, 1231, 2129, 2182, 2167, 2179, 2180, 2183
  13, 1232, 1233, 1234, 1235, 2186, 2185, 2184, 2188, 2187, 2189
  14, 1236, 1237, 1238, 1232, 2192, 2191, 2190, 2194, 2193, 2195
  15, 1239, 1236, 1237, 1238, 2197, 2192, 2196, 2198, 2190, 2191
  16, 1240, 1241, 1242, 1232, 2201, 2200, 2199, 2203, 2202, 2204
  17, 1243, 1240, 1241, 1242, 2206, 2201, 2205, 2207, 2199, 2200
  18, 1244, 1236, 1241, 1232, 2210, 2209, 2208, 2211, 2194, 2202
  19, 1245,  602,  603,  611, 2214, 2213, 2212, 2216, 2215, 2217
  20, 1240, 1233, 1246, 1232, 2220, 2219, 2218, 2203, 2186, 2221
** ... 8684 like lines cut
*Nset, nset=Set-1, generate
     1,  14158,      1
*Elset, elset=Set-1, generate
    1,  8704,     1
** Section: Section-1
*Solid Section, elset=Set-1, material=high-strength
,
*End Part
**  
**
** ASSEMBLY
**
*Assembly, name=Assembly
**  
*Instance, name=f1, part=frame
      -4.004,       -4.004,           0.
*End Instance
**  
*Instance, name=interlocking-1, part=interlocking
*End Instance
**  
*Nset, nset=Set-1, instance=f1, generate
    1,  6969,     1
*Elset, elset=Set-1, instance=f1, generate
    1,  7203,     1
*Elset, elset=_CP-3-interlocking-1_S3, internal, instance=interlocking-1
   65,  534,  544,  593,  901,  968, 1004, 1189, 1290, 1309, 1366, 1402, 1430, 1436, 1450, 1534
 1553, 1555, 1556, 1571, 1608, 1638, 1647, 1648, 1656, 1657, 1658, 1660, 1663, 1669, 1677, 1701
 1729, 1743, 1896, 1930, 1941, 1955, 1964, 1986, 1987, 2004, 2005, 2011, 2015, 2024, 2027, 2035
 2043, 2065, 2084, 2088, 2110
*Elset, elset=_CP-3-interlocking-1_S4, internal, instance=interlocking-1
   67,   75, 2033
*Elset, elset=_CP-3-interlocking-1_S1, internal, instance=interlocking-1
 73,
*Elset, elset=_CP-3-interlocking-1_S2, internal, instance=interlocking-1
 1728,
*Surface, type=ELEMENT, name=CP-3-interlocking-1
_CP-3-interlocking-1_S3, S3
_CP-3-interlocking-1_S4, S4
_CP-3-interlocking-1_S2, S2
_CP-3-interlocking-1_S1, S1
*Elset, elset=_CP-4-interlocking-1_S4, internal, instance=interlocking-1
    3, 1603
*Elset, elset=_CP-4-interlocking-1_S3, internal, instance=interlocking-1
  172,  584,  733,  814,  817, 1046, 1048, 1459, 1524, 1544, 1546, 1566, 1588, 1599, 1602, 1606
 1611, 1620, 1623, 1628, 1642, 1757, 1840, 1962
*Elset, elset=_CP-4-interlocking-1_S1, internal, instance=interlocking-1
 1573,
*Elset, elset=_CP-4-interlocking-1_S2, internal, instance=interlocking-1
 1607, 1862
*Surface, type=ELEMENT, name=CP-4-interlocking-1
_CP-4-interlocking-1_S4, S4
_CP-4-interlocking-1_S3, S3
_CP-4-interlocking-1_S2, S2
_CP-4-interlocking-1_S1, S1
*Elset, elset=_CP-5-f1_SNEG, internal, instance=f1, generate
  80,  119,    1
*Surface, type=ELEMENT, name=CP-5-f1
_CP-5-f1_SNEG, SNEG
*Elset, elset=_CP-5-interlocking-1_S4, internal, instance=interlocking-1
 2239, 2246, 4136
*Elset, elset=_CP-5-interlocking-1_S1, internal, instance=interlocking-1
 2244,
*Elset, elset=_CP-5-interlocking-1_S3, internal, instance=interlocking-1
 2227, 2362, 2651, 2745, 2759, 2883, 3075, 3328, 3358, 3444, 3521, 3563, 3663, 3689, 3705, 3706
 3715, 3718, 3729, 3746, 3767, 3773, 3774, 3790, 3794, 3797, 3804, 3812, 3839, 3867, 3950, 4014
 4046, 4053, 4054, 4062, 4069, 4075, 4079, 4092, 4093, 4094, 4103, 4113, 4129, 4133, 4143, 4150
 4183, 4340, 4344, 4346, 4347
*Elset, elset=_CP-5-interlocking-1_S2, internal, instance=interlocking-1
 3851,
*Surface, type=ELEMENT, name=CP-5-interlocking-1
_CP-5-interlocking-1_S4, S4
_CP-5-interlocking-1_S1, S1
_CP-5-interlocking-1_S2, S2
_CP-5-interlocking-1_S3, S3
*Elset, elset=_CP-6-f1_SNEG, internal, instance=f1, generate
 413,  432,    1
*Surface, type=ELEMENT, name=CP-6-f1
_CP-6-f1_SNEG, SNEG
*Elset, elset=_CP-6-interlocking-1_S3, internal, instance=interlocking-1
 4539, 4558, 4571, 4932, 5024, 5255, 5504, 5540, 5546, 5624, 5699, 5712, 5729, 5762, 5783, 5842
 5850, 5865, 5871, 5873, 5880, 5893, 5894, 5941, 5943, 5985, 5991, 5995, 6008, 6009, 6039, 6070
 6078, 6192, 6211, 6274, 6288, 6306, 6307, 6308, 6311, 6319, 6322, 6325, 6328, 6331, 6335, 6338
 6358, 6382, 6447
*Elset, elset=_CP-6-interlocking-1_S4, internal, instance=interlocking-1
 4837, 4844, 5789, 6327
*Elset, elset=_CP-6-interlocking-1_S1, internal, instance=interlocking-1
 4842,
*Elset, elset=_CP-6-interlocking-1_S2, internal, instance=interlocking-1
 4846, 6059
*Surface, type=ELEMENT, name=CP-6-interlocking-1
_CP-6-interlocking-1_S3, S3
_CP-6-interlocking-1_S4, S4
_CP-6-interlocking-1_S2, S2
_CP-6-interlocking-1_S1, S1
*Elset, elset=_CP-7-f1_SNEG, internal, instance=f1, generate
 475,  514,    1
*Surface, type=ELEMENT, name=CP-7-f1
_CP-7-f1_SNEG, SNEG
*Elset, elset=_CP-7-interlocking-1_S3, internal, instance=interlocking-1
   82,   95,  178,  363,  642,  671,  798, 1186, 1223, 1486, 1512, 1513, 1643, 1666, 1668, 1702
 1749, 1812, 1831, 1834, 1838, 1851, 1853, 1855, 1857, 1860, 1868, 1870, 1890, 1892, 1897, 1929
 1932, 1934, 1942, 1943, 1945, 1948, 1957, 1961, 1969, 1976, 2003, 2012
*Elset, elset=_CP-7-interlocking-1_S1, internal, instance=interlocking-1
 1156,
*Elset, elset=_CP-7-interlocking-1_S4, internal, instance=interlocking-1
 1495, 1655, 1954
*Elset, elset=_CP-7-interlocking-1_S2, internal, instance=interlocking-1
 1533,
*Surface, type=ELEMENT, name=CP-7-interlocking-1
_CP-7-interlocking-1_S3, S3
_CP-7-interlocking-1_S1, S1
_CP-7-interlocking-1_S4, S4
_CP-7-interlocking-1_S2, S2
*Elset, elset=_CP-8-f1_SNEG, internal, instance=f1
 577, 578, 579, 580, 581, 582, 583, 584, 585, 586, 587, 588, 589, 590, 591, 592
 593, 594, 595, 596, 597, 639, 640, 641, 642, 643, 644, 645, 646, 647, 648, 649
 650, 651, 652, 653, 654, 655, 656, 657, 658, 659
*Surface, type=ELEMENT, name=CP-8-f1
_CP-8-f1_SNEG, SNEG
*Elset, elset=_CP-8-interlocking-1_S2, internal, instance=interlocking-1
 2210,
*Elset, elset=_CP-8-interlocking-1_S3, internal, instance=interlocking-1
 2714, 2884, 2938, 2972, 3137, 3360, 3385, 3447, 3638, 3726, 3763, 3805, 3806, 3928, 3936, 3954
 3956, 3969, 3973, 3978, 3979, 3981, 3987, 3988, 3992, 3997, 4001, 4013, 4016, 4033, 4038, 4039
 4045, 4065, 4078, 4081, 4082, 4104, 4108, 4145, 4151, 4235, 4295, 4334
*Elset, elset=_CP-8-interlocking-1_S4, internal, instance=interlocking-1
 3139, 3643, 3788
*Elset, elset=_CP-8-interlocking-1_S1, internal, instance=interlocking-1
 3864,
*Surface, type=ELEMENT, name=CP-8-interlocking-1
_CP-8-interlocking-1_S2, S2
_CP-8-interlocking-1_S3, S3
_CP-8-interlocking-1_S4, S4
_CP-8-interlocking-1_S1, S1
*Elset, elset=_CP-9-f1_SNEG, internal, instance=f1, generate
 660,  691,    1
*Surface, type=ELEMENT, name=CP-9-f1
_CP-9-f1_SNEG, SNEG
*Elset, elset=_CP-9-interlocking-1_S3, internal, instance=interlocking-1
 2331, 2793, 2795, 2864, 3047, 3095, 3109, 3190, 3193, 3230, 3236, 3291, 3293, 3405, 3592, 3606
 3635, 3831, 3883, 3888, 3908, 3922, 3930, 3935, 3967, 4042, 4140, 4304, 4307, 4312, 4332
*Elset, elset=_CP-9-interlocking-1_S2, internal, instance=interlocking-1
 2807, 3766, 3882, 3886, 3890, 3898, 3957, 3968, 4272, 4333
*Elset, elset=_CP-9-interlocking-1_S1, internal, instance=interlocking-1
 3333, 3889, 3899, 4301
*Elset, elset=_CP-9-interlocking-1_S4, internal, instance=interlocking-1
 3891, 3906, 3948, 4207
*Surface, type=ELEMENT, name=CP-9-interlocking-1
_CP-9-interlocking-1_S3, S3
_CP-9-interlocking-1_S2, S2
_CP-9-interlocking-1_S4, S4
_CP-9-interlocking-1_S1, S1
*Elset, elset=_CP-10-f1_SNEG, internal, instance=f1, generate
 692,  722,    1
*Surface, type=ELEMENT, name=CP-10-f1
_CP-10-f1_SNEG, SNEG
*Elset, elset=_CP-10-interlocking-1_S3, internal, instance=interlocking-1
 5230, 5398, 5400, 5807, 5864, 5907, 5916, 5919, 5928, 5931, 5936, 5939, 5944, 5947, 5951, 5953
 5956, 5958, 5964, 5971, 6001, 6088, 6165, 6196, 6286
*Elset, elset=_CP-10-interlocking-1_S4, internal, instance=interlocking-1
 5932,
*Elset, elset=_CP-10-interlocking-1_S2, internal, instance=interlocking-1
 5940, 6086, 6177
*Surface, type=ELEMENT, name=CP-10-interlocking-1
_CP-10-interlocking-1_S3, S3
_CP-10-interlocking-1_S4, S4
_CP-10-interlocking-1_S2, S2
*Elset, elset=_CP-11-f1_SNEG, internal, instance=f1, generate
 804,  835,    1
*Surface, type=ELEMENT, name=CP-11-f1
_CP-11-f1_SNEG, SNEG
*Elset, elset=_CP-11-interlocking-1_S3, internal, instance=interlocking-1
   78,  200,  531,  664,  712,  713,  793, 1023, 1035, 1242, 1319, 1431, 1490, 1764, 1769, 1796
 1797, 1802, 1805, 1807, 1818, 1821, 1845, 1849, 1866, 1907, 1922, 1998, 2039, 2096, 2130
*Elset, elset=_CP-11-interlocking-1_S2, internal, instance=interlocking-1
  166, 1579, 1600, 1649, 1767, 1774, 1847, 1928
*Elset, elset=_CP-11-interlocking-1_S1, internal, instance=interlocking-1
  169,  811, 1639, 1770, 1775, 1788, 1966
*Elset, elset=_CP-11-interlocking-1_S4, internal, instance=interlocking-1
 1825, 1841, 1848
*Surface, type=ELEMENT, name=CP-11-interlocking-1
_CP-11-interlocking-1_S3, S3
_CP-11-interlocking-1_S2, S2
_CP-11-interlocking-1_S4, S4
_CP-11-interlocking-1_S1, S1
*Elset, elset=_CP-12-f1_SNEG, internal, instance=f1, generate
  993,  1012,     1
*Surface, type=ELEMENT, name=CP-12-f1
_CP-12-f1_SNEG, SNEG
*Elset, elset=_CP-12-interlocking-1_S4, internal, instance=interlocking-1
 2417, 2904, 3733, 3880, 4084
*Elset, elset=_CP-12-interlocking-1_S3, internal, instance=interlocking-1
 2922, 3163, 3239, 3284, 3338, 3676, 3684, 3699, 3700, 3701, 3702, 3710, 3722, 3728, 3740, 3744
 3747, 3752, 3829, 3837, 4095
*Elset, elset=_CP-12-interlocking-1_S2, internal, instance=interlocking-1
 3716, 3879
*Elset, elset=_CP-12-interlocking-1_S1, internal, instance=interlocking-1
 4002,
*Surface, type=ELEMENT, name=CP-12-interlocking-1
_CP-12-interlocking-1_S4, S4
_CP-12-interlocking-1_S3, S3
_CP-12-interlocking-1_S2, S2
_CP-12-interlocking-1_S1, S1
*Elset, elset=_CP-13-f1_SNEG, internal, instance=f1, generate
 1013,  1044,     1
*Surface, type=ELEMENT, name=CP-13-f1
_CP-13-f1_SNEG, SNEG
*Elset, elset=_CP-13-interlocking-1_S4, internal, instance=interlocking-1
 6588, 8078, 8234, 8683, 8691
*Elset, elset=_CP-13-interlocking-1_S3, internal, instance=interlocking-1
 6749, 7189, 7451, 7954, 7978, 8027, 8044, 8045, 8057, 8065, 8068, 8071, 8074, 8090, 8095, 8100
 8107, 8179, 8182, 8275, 8294, 8387
*Elset, elset=_CP-13-interlocking-1_S2, internal, instance=interlocking-1
 8063,
*Elset, elset=_CP-13-interlocking-1_S1, internal, instance=interlocking-1
 8320,
*Surface, type=ELEMENT, name=CP-13-interlocking-1
_CP-13-interlocking-1_S4, S4
_CP-13-interlocking-1_S3, S3
_CP-13-interlocking-1_S2, S2
_CP-13-interlocking-1_S1, S1
*Elset, elset=_CP-14-f1_SNEG, internal, instance=f1, generate
 1516,  1534,     1
*Surface, type=ELEMENT, name=CP-14-f1
_CP-14-f1_SNEG, SNEG
*Elset, elset=_CP-14-interlocking-1_S1, internal, instance=interlocking-1
 6997, 8373
*Elset, elset=_CP-14-interlocking-1_S3, internal, instance=interlocking-1
 7339, 7585, 7965, 7973, 7988, 8011, 8062, 8113, 8127, 8132, 8144, 8145, 8150, 8176, 8219, 8221
 8238, 8289, 8307, 8310, 8314, 8325, 8327, 8328, 8330, 8331, 8332, 8335, 8344, 8349, 8351, 8359
 8380, 8385, 8391, 8392, 8397, 8399, 8401, 8403, 8408, 8415, 8417, 8479, 8687, 8695
*Elset, elset=_CP-14-interlocking-1_S4, internal, instance=interlocking-1
 8388,
*Surface, type=ELEMENT, name=CP-14-interlocking-1
_CP-14-interlocking-1_S1, S1
_CP-14-interlocking-1_S3, S3
_CP-14-interlocking-1_S4, S4
*Elset, elset=_CP-15-f1_SNEG, internal, instance=f1, generate
 1535,  1553,     1
*Surface, type=ELEMENT, name=CP-15-f1
_CP-15-f1_SNEG, SNEG
*Elset, elset=_CP-15-interlocking-1_S3, internal, instance=interlocking-1
 7742, 7800, 7972, 7983, 8063, 8085, 8087, 8091, 8096, 8102, 8106, 8109, 8110, 8111, 8112, 8114
 8115, 8119, 8140, 8146, 8160, 8234, 8405, 8683, 8704
*Elset, elset=_CP-15-interlocking-1_S4, internal, instance=interlocking-1
 8088,
*Elset, elset=_CP-15-interlocking-1_S2, internal, instance=interlocking-1
 8101, 8320
*Elset, elset=_CP-15-interlocking-1_S1, internal, instance=interlocking-1
 8344,
*Surface, type=ELEMENT, name=CP-15-interlocking-1
_CP-15-interlocking-1_S3, S3
_CP-15-interlocking-1_S4, S4
_CP-15-interlocking-1_S2, S2
_CP-15-interlocking-1_S1, S1
*Elset, elset=_CP-16-f1_SNEG, internal, instance=f1, generate
 1574,  1605,     1
*Surface, type=ELEMENT, name=CP-16-f1
_CP-16-f1_SNEG, SNEG
*Elset, elset=_CP-16-interlocking-1_S3, internal, instance=interlocking-1
 6875, 7101, 7202, 7345, 7360, 7458, 7560, 7639, 7748, 7770, 7808, 7903, 7904, 7933, 7935, 8235
 8243, 8252, 8253, 8262, 8266, 8269, 8277, 8279, 8346, 8390, 8474, 8493, 8577, 8599, 8675, 8686
*Elset, elset=_CP-16-interlocking-1_S2, internal, instance=interlocking-1
 7582, 7931, 8237, 8248, 8251, 8313, 8644, 8663
*Elset, elset=_CP-16-interlocking-1_S1, internal, instance=interlocking-1
 8244, 8260, 8303, 8547, 8635, 8662
*Elset, elset=_CP-16-interlocking-1_S4, internal, instance=interlocking-1
 8257, 8287, 8494
*Surface, type=ELEMENT, name=CP-16-interlocking-1
_CP-16-interlocking-1_S3, S3
_CP-16-interlocking-1_S2, S2
_CP-16-interlocking-1_S4, S4
_CP-16-interlocking-1_S1, S1
*Elset, elset=_CP-17-f1_SNEG, internal, instance=f1, generate
 1606,  1625,     1
*Surface, type=ELEMENT, name=CP-17-f1
_CP-17-f1_SNEG, SNEG
*Elset, elset=_CP-17-interlocking-1_S3, internal, instance=interlocking-1
  727,  819, 1050, 1288, 1326, 1529, 1547, 1548, 1561, 1572, 1575, 1577, 1583, 1590, 1605, 1609
 1614, 1706, 1708, 1936, 1947, 2183
*Elset, elset=_CP-17-interlocking-1_S4, internal, instance=interlocking-1
  764, 1487, 1642, 1757, 1836
*Elset, elset=_CP-17-interlocking-1_S2, internal, instance=interlocking-1
 1566,
*Elset, elset=_CP-17-interlocking-1_S1, internal, instance=interlocking-1
 1862,
*Surface, type=ELEMENT, name=CP-17-interlocking-1
_CP-17-interlocking-1_S3, S3
_CP-17-interlocking-1_S4, S4
_CP-17-interlocking-1_S2, S2
_CP-17-interlocking-1_S1, S1
*Elset, elset=_CP-18-f1_SNEG, internal, instance=f1, generate
 1626,  1657,     1
*Surface, type=ELEMENT, name=CP-18-f1
_CP-18-f1_SNEG, SNEG
*Elset, elset=_CP-18-interlocking-1_S3, internal, instance=interlocking-1
 4985, 5038, 5211, 5217, 5284, 5372, 5403, 5408, 5462, 5471, 5477, 5505, 5765, 5767, 5768, 5813
 6051, 6098, 6102, 6103, 6116, 6130, 6131, 6135, 6151, 6220, 6231, 6238, 6389, 6453, 6502, 6511
*Elset, elset=_CP-18-interlocking-1_S4, internal, instance=interlocking-1
 5684, 6113, 6160
*Elset, elset=_CP-18-interlocking-1_S2, internal, instance=interlocking-1
 5927, 6018, 6097, 6109, 6117, 6170, 6171, 6383, 6471
*Elset, elset=_CP-18-interlocking-1_S1, internal, instance=interlocking-1
 6004, 6105, 6126, 6127, 6499
*Surface, type=ELEMENT, name=CP-18-interlocking-1
_CP-18-interlocking-1_S3, S3
_CP-18-interlocking-1_S4, S4
_CP-18-interlocking-1_S2, S2
_CP-18-interlocking-1_S1, S1
*Elset, elset=_CP-19-f1_SNEG, internal, instance=f1, generate
 1737,  1757,     1
*Surface, type=ELEMENT, name=CP-19-f1
_CP-19-f1_SNEG, SNEG
*Elset, elset=_CP-19-interlocking-1_S3, internal, instance=interlocking-1
 6605, 6676, 6792, 6868, 6932, 7029, 7106, 7260, 7422, 7537, 7598, 7784, 7868, 7914, 7923, 7925
 8031, 8050, 8067, 8070, 8094, 8105, 8116, 8117, 8122, 8128, 8129, 8133, 8135, 8147, 8152, 8171
 8180, 8207, 8211, 8214, 8350, 8395, 8402, 8407, 8437, 8438, 8439, 8455, 8461, 8464, 8475, 8480
 8488, 8499, 8518, 8521, 8672, 8673
*Elset, elset=_CP-19-interlocking-1_S4, internal, instance=interlocking-1
 6634, 7372
*Elset, elset=_CP-19-interlocking-1_S2, internal, instance=interlocking-1
 6808,
*Elset, elset=_CP-19-interlocking-1_S1, internal, instance=interlocking-1
 7782,
*Surface, type=ELEMENT, name=CP-19-interlocking-1
_CP-19-interlocking-1_S3, S3
_CP-19-interlocking-1_S4, S4
_CP-19-interlocking-1_S2, S2
_CP-19-interlocking-1_S1, S1
*Elset, elset=_CP-20-f1_SNEG, internal, instance=f1, generate
 1778,  1809,     1
*Surface, type=ELEMENT, name=CP-20-f1
_CP-20-f1_SNEG, SNEG
*Elset, elset=_CP-20-interlocking-1_S3, internal, instance=interlocking-1
 4638, 4666, 4695, 4769, 4777, 5058, 5264, 5657, 5829, 5926, 5967, 5968, 5983, 5989, 6006, 6007
 6079, 6080, 6166, 6175, 6177, 6184, 6185, 6189, 6190, 6193, 6197, 6203, 6213, 6218, 6222, 6225
 6227, 6242, 6248, 6251, 6253, 6254, 6259, 6261, 6268, 6301, 6304, 6353, 6354, 6377
*Elset, elset=_CP-20-interlocking-1_S1, internal, instance=interlocking-1
 5520,
*Elset, elset=_CP-20-interlocking-1_S2, internal, instance=interlocking-1
 5640, 6290
*Surface, type=ELEMENT, name=CP-20-interlocking-1
_CP-20-interlocking-1_S3, S3
_CP-20-interlocking-1_S1, S1
_CP-20-interlocking-1_S2, S2
*Elset, elset=_CP-21-f1_SNEG, internal, instance=f1
 1810, 1811, 1812, 1813, 1814, 1815, 1816, 1817, 1818, 1819, 1820, 1821, 1822, 1823, 1824, 1825
 1826, 1827, 1828, 1829, 1830, 1871, 1872, 1873, 1874, 1875, 1876, 1877, 1878, 1879, 1880, 1881
 1882, 1883, 1884, 1885, 1886, 1887, 1888, 1889, 1890, 1891
*Surface, type=ELEMENT, name=CP-21-f1
_CP-21-f1_SNEG, SNEG
*Elset, elset=_CP-21-interlocking-1_S3, internal, instance=interlocking-1
 4414, 4508, 4623, 4725, 4819, 4864, 4883, 4908, 4912, 4918, 4926, 4991, 5035, 5061, 5098, 5249
 5289, 5293, 5294, 5510, 5542, 5564, 5594, 5607, 5639, 5648, 5685, 5711, 5775, 5786, 5806, 5809
 5837, 5840, 5841, 5846, 5854, 5861, 5870, 5875, 5877, 5882, 5886, 5889, 5890, 5897, 5904, 5924
 5945, 5963, 5974, 5992, 6013, 6014, 6050, 6056, 6062, 6069, 6074, 6075, 6162, 6188, 6229, 6260
 6270, 6305, 6309, 6310, 6313, 6316, 6321, 6323, 6324, 6332, 6337, 6367, 6391, 6400, 6403, 6413
 6416, 6426, 6437, 6505
*Elset, elset=_CP-21-interlocking-1_S1, internal, instance=interlocking-1
 5865, 5869, 5940, 6021, 6023, 6233, 6284, 6327, 6338, 6358, 6380, 6410, 6492
*Elset, elset=_CP-21-interlocking-1_S4, internal, instance=interlocking-1
 5888, 5958, 6217, 6288
*Elset, elset=_CP-21-interlocking-1_S2, internal, instance=interlocking-1
 5457, 5879, 5919, 5921, 5980, 5991, 6012, 6070, 6094, 6176, 6286, 6307, 6333, 6422, 6444
*Surface, type=ELEMENT, name=CP-21-interlocking-1
_CP-21-interlocking-1_S3, S3
_CP-21-interlocking-1_S1, S1
_CP-21-interlocking-1_S4, S4
_CP-21-interlocking-1_S2, S2
*Elset, elset=_CP-22-f1_SNEG, internal, instance=f1, generate
 2067,  2098,     1
*Surface, type=ELEMENT, name=CP-22-f1
_CP-22-f1_SNEG, SNEG
*Elset, elset=_CP-22-interlocking-1_S3, internal, instance=interlocking-1
 6599, 6757, 7674, 7846, 7847, 7886, 7916, 7918, 7931, 7970, 8015, 8017, 8242, 8244, 8290, 8303
 8306, 8431, 8456, 8564, 8567, 8571, 8573, 8582, 8584, 8600, 8615, 8622, 8626, 8630, 8635, 8639
 8643, 8666
*Elset, elset=_CP-22-interlocking-1_S4, internal, instance=interlocking-1
 7188, 7619, 8227, 8604
*Elset, elset=_CP-22-interlocking-1_S2, internal, instance=interlocking-1
 7669, 8259, 8423, 8546, 8602, 8649, 8659
*Elset, elset=_CP-22-interlocking-1_S1, internal, instance=interlocking-1
 7702, 8222, 8576, 8595
*Surface, type=ELEMENT, name=CP-22-interlocking-1
_CP-22-interlocking-1_S3, S3
_CP-22-interlocking-1_S4, S4
_CP-22-interlocking-1_S2, S2
_CP-22-interlocking-1_S1, S1
*Elset, elset=_CP-23-f1_SPOS, internal, instance=f1, generate
 2316,  4888,     1
*Surface, type=ELEMENT, name=CP-23-f1
_CP-23-f1_SPOS, SPOS
*Elset, elset=_CP-23-interlocking-1_S4, internal, instance=interlocking-1
   62, 1352
*Elset, elset=_CP-23-interlocking-1_S3, internal, instance=interlocking-1
  316,  472,  700,  846,  911,  973, 1005, 1009, 1010, 1069, 1075, 1212, 1215, 1219, 1251, 1253
 1267, 1414, 1505, 1507, 1509, 1515, 1574, 1581, 1882, 1916, 1982, 1984, 2022, 2050, 2051, 2054
 2072, 2079, 2083, 2085, 2089, 2090, 2098, 2105, 2109, 2115, 2120, 2140, 2169, 2186
*Elset, elset=_CP-23-interlocking-1_S1, internal, instance=interlocking-1
 1993,
*Surface, type=ELEMENT, name=CP-23-interlocking-1
_CP-23-interlocking-1_S4, S4
_CP-23-interlocking-1_S3, S3
_CP-23-interlocking-1_S1, S1
*Elset, elset=_CP-24-f1_SNEG, internal, instance=f1, generate
 413,  432,    1
*Surface, type=ELEMENT, name=CP-24-f1
_CP-24-f1_SNEG, SNEG
*Elset, elset=_CP-24-interlocking-1_S3, internal, instance=interlocking-1
  322, 1377, 1617, 1703, 1829, 1913, 2037, 2046, 2059, 2064, 2075, 2092, 2100, 2101, 2112, 2119
 2131, 2152, 2163, 2172, 2173, 2175, 2179
*Elset, elset=_CP-24-interlocking-1_S1, internal, instance=interlocking-1
 1863,
*Elset, elset=_CP-24-interlocking-1_S2, internal, instance=interlocking-1
 1875, 2028
*Elset, elset=_CP-24-interlocking-1_S4, internal, instance=interlocking-1
 2047, 2125, 2129
*Surface, type=ELEMENT, name=CP-24-interlocking-1
_CP-24-interlocking-1_S3, S3
_CP-24-interlocking-1_S1, S1
_CP-24-interlocking-1_S2, S2
_CP-24-interlocking-1_S4, S4
*Elset, elset=_CP-25-f1_SNEG, internal, instance=f1, generate
 475,  514,    1
*Surface, type=ELEMENT, name=CP-25-f1
_CP-25-f1_SNEG, SNEG
*Elset, elset=_CP-25-interlocking-1_S3, internal, instance=interlocking-1
 6923, 7109, 8355, 8442, 8452, 8486, 8487, 8491, 8506, 8515, 8516, 8520, 8532, 8541, 8554, 8560
 8561, 8575, 8588, 8589, 8591, 8597, 8613, 8645, 8678, 8696
*Elset, elset=_CP-25-interlocking-1_S1, internal, instance=interlocking-1
 7633, 8688
*Elset, elset=_CP-25-interlocking-1_S4, internal, instance=interlocking-1
 8441,
*Surface, type=ELEMENT, name=CP-25-interlocking-1
_CP-25-interlocking-1_S3, S3
_CP-25-interlocking-1_S1, S1
_CP-25-interlocking-1_S4, S4
*Elset, elset=_CP-26-f1_SNEG, internal, instance=f1
 577, 578, 579, 580, 581, 582, 583, 584, 585, 586, 587, 588, 589, 590, 591, 592
 593, 594, 595, 596, 597, 639, 640, 641, 642, 643, 644, 645, 646, 647, 648, 649
 650, 651, 652, 653, 654, 655, 656, 657, 658, 659
*Surface, type=ELEMENT, name=CP-26-f1
_CP-26-f1_SNEG, SNEG
*Elset, elset=_CP-26-interlocking-1_S3, internal, instance=interlocking-1
 2486, 2723, 3525, 3528, 3653, 3691, 3779, 3780, 3881, 3982, 4203, 4205, 4245, 4253, 4261, 4263
 4270, 4281, 4292, 4302, 4322, 4324, 4330, 4338
*Elset, elset=_CP-26-interlocking-1_S1, internal, instance=interlocking-1
 4076,
*Elset, elset=_CP-26-interlocking-1_S2, internal, instance=interlocking-1
 4088, 4234
*Elset, elset=_CP-26-interlocking-1_S4, internal, instance=interlocking-1
 4191, 4327
*Surface, type=ELEMENT, name=CP-26-interlocking-1
_CP-26-interlocking-1_S3, S3
_CP-26-interlocking-1_S1, S1
_CP-26-interlocking-1_S2, S2
_CP-26-interlocking-1_S4, S4
*Elset, elset=_CP-27-f1_SNEG, internal, instance=f1, generate
 660,  691,    1
*Surface, type=ELEMENT, name=CP-27-f1
_CP-27-f1_SNEG, SNEG
*Elset, elset=_CP-27-interlocking-1_S4, internal, instance=interlocking-1
 1006,
*Elset, elset=_CP-27-interlocking-1_S1, internal, instance=interlocking-1
 1469,
*Elset, elset=_CP-27-interlocking-1_S3, internal, instance=interlocking-1
 1516, 1784, 1863, 1873, 1874, 1875, 1878, 1888, 1926, 1950, 1959, 1960, 1963, 1972, 1991, 2006
 2018, 2019, 2021, 2028, 2041, 2062, 2074, 2122, 2125, 2184
*Elset, elset=_CP-27-interlocking-1_S2, internal, instance=interlocking-1
 1919,
*Surface, type=ELEMENT, name=CP-27-interlocking-1
_CP-27-interlocking-1_S4, S4
_CP-27-interlocking-1_S1, S1
_CP-27-interlocking-1_S2, S2
_CP-27-interlocking-1_S3, S3
*Elset, elset=_CP-28-f1_SNEG, internal, instance=f1, generate
 692,  722,    1
*Surface, type=ELEMENT, name=CP-28-f1
_CP-28-f1_SNEG, SNEG
*Elset, elset=_CP-28-interlocking-1_S3, internal, instance=interlocking-1
  108,  269,  359,  678, 1099, 1137, 1148, 1355, 1384, 1435, 1439, 1521, 1580, 1600, 1613, 1695
 1730, 1770, 1825, 1828, 1887, 1889, 1901, 1912, 1966, 1978, 1996, 2086, 2124, 2126, 2132, 2133
 2136, 2155, 2181
*Elset, elset=_CP-28-interlocking-1_S2, internal, instance=interlocking-1
  856, 1585, 1684, 1858, 1872, 2150
*Elset, elset=_CP-28-interlocking-1_S4, internal, instance=interlocking-1
 1263, 1696, 1787, 2134, 2157
*Elset, elset=_CP-28-interlocking-1_S1, internal, instance=interlocking-1
 1661, 2138, 2141
*Surface, type=ELEMENT, name=CP-28-interlocking-1
_CP-28-interlocking-1_S3, S3
_CP-28-interlocking-1_S2, S2
_CP-28-interlocking-1_S4, S4
_CP-28-interlocking-1_S1, S1
*Elset, elset=_CP-29-f1_SNEG, internal, instance=f1, generate
 804,  835,    1
*Surface, type=ELEMENT, name=CP-29-f1
_CP-29-f1_SNEG, SNEG
*Elset, elset=_CP-29-interlocking-1_S3, internal, instance=interlocking-1
 2280, 2380, 2463, 2543, 2780, 2782, 2846, 2850, 2978, 3010, 3018, 3044, 3226, 3305, 3377, 3386
 3490, 3496, 3499, 3514, 3580, 3660, 3695, 3764, 3820, 3873, 3972, 4009, 4011, 4012, 4036, 4117
 4118, 4147, 4165, 4184, 4186, 4197, 4221, 4222, 4287, 4337, 4341, 4353
*Elset, elset=_CP-29-interlocking-1_S4, internal, instance=interlocking-1
 2359, 2591
*Elset, elset=_CP-29-interlocking-1_S2, internal, instance=interlocking-1
 3367, 4324
*Elset, elset=_CP-29-interlocking-1_S1, internal, instance=interlocking-1
 4200,
*Surface, type=ELEMENT, name=CP-29-interlocking-1
_CP-29-interlocking-1_S3, S3
_CP-29-interlocking-1_S4, S4
_CP-29-interlocking-1_S2, S2
_CP-29-interlocking-1_S1, S1
*Elset, elset=_CP-30-f1_SNEG, internal, instance=f1, generate
  993,  1012,     1
*Surface, type=ELEMENT, name=CP-30-f1
_CP-30-f1_SNEG, SNEG
*Elset, elset=_CP-30-interlocking-1_S3, internal, instance=interlocking-1
 4667, 4788, 4899, 5344, 5654, 5758, 5955, 6021, 6087, 6209, 6291, 6330, 6401, 6408, 6410, 6414
 6417, 6422, 6429, 6441, 6484, 6492, 6501, 6518
*Elset, elset=_CP-30-interlocking-1_S2, internal, instance=interlocking-1
 6140, 6240, 6394
*Elset, elset=_CP-30-interlocking-1_S4, internal, instance=interlocking-1
 6486, 6489
*Surface, type=ELEMENT, name=CP-30-interlocking-1
_CP-30-interlocking-1_S3, S3
_CP-30-interlocking-1_S2, S2
_CP-30-interlocking-1_S4, S4
*Elset, elset=_CP-31-f1_SNEG, internal, instance=f1, generate
 1013,  1044,     1
*Surface, type=ELEMENT, name=CP-31-f1
_CP-31-f1_SNEG, SNEG
*Elset, elset=_CP-31-interlocking-1_S3, internal, instance=interlocking-1
 2485, 4076, 4077, 4086, 4088, 4105, 4124, 4132, 4148, 4158, 4161, 4163, 4171, 4173, 4174, 4176
 4198, 4216, 4225, 4226, 4229, 4233, 4234, 4249, 4280, 4305, 4327
*Elset, elset=_CP-31-interlocking-1_S1, internal, instance=interlocking-1
 4049,
*Elset, elset=_CP-31-interlocking-1_S4, internal, instance=interlocking-1
 4067,
*Surface, type=ELEMENT, name=CP-31-interlocking-1
_CP-31-interlocking-1_S3, S3
_CP-31-interlocking-1_S1, S1
_CP-31-interlocking-1_S4, S4
*Elset, elset=_CP-32-f1_SNEG, internal, instance=f1, generate
 1299,  1318,     1
*Surface, type=ELEMENT, name=CP-32-f1
_CP-32-f1_SNEG, SNEG
*Elset, elset=_CP-32-interlocking-1_S3, internal, instance=interlocking-1
 2715, 2957, 3202, 3299, 3493, 3510, 3575, 3610, 3611, 3671, 3870, 3877, 3889, 3921, 3937, 3943
 3948, 3949, 3953, 3983, 4004, 4051, 4109, 4185, 4204, 4236, 4239, 4242, 4268, 4272, 4279, 4285
 4294, 4298, 4301
*Elset, elset=_CP-32-interlocking-1_S2, internal, instance=interlocking-1
 3772, 3887, 3971, 4061, 4264, 4315, 4317
*Elset, elset=_CP-32-interlocking-1_S1, internal, instance=interlocking-1
 3857, 3910, 4255, 4257
*Elset, elset=_CP-32-interlocking-1_S4, internal, instance=interlocking-1
 3884, 3990, 4266
*Surface, type=ELEMENT, name=CP-32-interlocking-1
_CP-32-interlocking-1_S3, S3
_CP-32-interlocking-1_S2, S2
_CP-32-interlocking-1_S4, S4
_CP-32-interlocking-1_S1, S1
*Elset, elset=_CP-33-f1_SNEG, internal, instance=f1, generate
 1516,  1534,     1
*Surface, type=ELEMENT, name=CP-33-f1
_CP-33-f1_SNEG, SNEG
*Elset, elset=_CP-33-interlocking-1_S3, internal, instance=interlocking-1
 4438, 4606, 4620, 4830, 5023, 5135, 5193, 5262, 5285, 5407, 5485, 5486, 5507, 5523, 5524, 5528
 5713, 5717, 5721, 5772, 5876, 5895, 5911, 6067, 6249, 6293, 6294, 6320, 6342, 6386, 6402, 6406
 6425, 6428, 6431, 6433, 6448, 6450, 6461, 6468, 6509, 6517, 6529
*Elset, elset=_CP-33-interlocking-1_S4, internal, instance=interlocking-1
 5227, 5405, 6341
*Elset, elset=_CP-33-interlocking-1_S1, internal, instance=interlocking-1
 6361,
*Elset, elset=_CP-33-interlocking-1_S2, internal, instance=interlocking-1
 6439, 6518
*Surface, type=ELEMENT, name=CP-33-interlocking-1
_CP-33-interlocking-1_S3, S3
_CP-33-interlocking-1_S4, S4
_CP-33-interlocking-1_S2, S2
_CP-33-interlocking-1_S1, S1
*Elset, elset=_CP-34-f1_SNEG, internal, instance=f1, generate
 1535,  1553,     1
*Surface, type=ELEMENT, name=CP-34-f1
_CP-34-f1_SNEG, SNEG
*Elset, elset=_CP-34-interlocking-1_S3, internal, instance=interlocking-1
 6938, 6980, 7079, 7248, 7436, 7556, 7636, 7860, 8143, 8507, 8529, 8535, 8608, 8609, 8612, 8627
 8636, 8640, 8646, 8647, 8657, 8690, 8701
*Elset, elset=_CP-34-interlocking-1_S2, internal, instance=interlocking-1
 8432, 8442, 8597
*Elset, elset=_CP-34-interlocking-1_S4, internal, instance=interlocking-1
 8677, 8696, 8699
*Surface, type=ELEMENT, name=CP-34-interlocking-1
_CP-34-interlocking-1_S3, S3
_CP-34-interlocking-1_S2, S2
_CP-34-interlocking-1_S4, S4
*Elset, elset=_CP-35-f1_SNEG, internal, instance=f1, generate
 1574,  1605,     1
*Surface, type=ELEMENT, name=CP-35-f1
_CP-35-f1_SNEG, SNEG
*Elset, elset=_CP-35-interlocking-1_S3, internal, instance=interlocking-1
 5667, 6140, 6237, 6240, 6241, 6244, 6265, 6267, 6272, 6284, 6287, 6303, 6314, 6329, 6333, 6344
 6359, 6380, 6384, 6387, 6390, 6394, 6399, 6432, 6440, 6444, 6489
*Elset, elset=_CP-35-interlocking-1_S4, internal, instance=interlocking-1
 6228,
*Elset, elset=_CP-35-interlocking-1_S2, internal, instance=interlocking-1
 6283,
*Surface, type=ELEMENT, name=CP-35-interlocking-1
_CP-35-interlocking-1_S3, S3
_CP-35-interlocking-1_S4, S4
_CP-35-interlocking-1_S2, S2
*Elset, elset=_CP-36-f1_SNEG, internal, instance=f1, generate
 1606,  1625,     1
*Surface, type=ELEMENT, name=CP-36-f1
_CP-36-f1_SNEG, SNEG
*Elset, elset=_CP-36-interlocking-1_S3, internal, instance=interlocking-1
 4531, 4567, 5385, 5529, 5596, 5626, 5686, 5687, 5799, 5803, 5855, 5860, 6105, 6134, 6160, 6164
 6202, 6207, 6250, 6258, 6273, 6346, 6351, 6366, 6372, 6381, 6446, 6460, 6471, 6475, 6480, 6488
 6495, 6499
*Elset, elset=_CP-36-interlocking-1_S1, internal, instance=interlocking-1
 5355, 5998, 6024, 6467
*Elset, elset=_CP-36-interlocking-1_S2, internal, instance=interlocking-1
 6052, 6058, 6221, 6345, 6452, 6476, 6520, 6527
*Elset, elset=_CP-36-interlocking-1_S4, internal, instance=interlocking-1
 6061, 6149, 6474
*Surface, type=ELEMENT, name=CP-36-interlocking-1
_CP-36-interlocking-1_S3, S3
_CP-36-interlocking-1_S1, S1
_CP-36-interlocking-1_S2, S2
_CP-36-interlocking-1_S4, S4
*Elset, elset=_CP-37-f1_SNEG, internal, instance=f1, generate
 1626,  1657,     1
*Surface, type=ELEMENT, name=CP-37-f1
_CP-37-f1_SNEG, SNEG
*Elset, elset=_CP-37-interlocking-1_S3, internal, instance=interlocking-1
 6584, 6658, 6670, 6730, 6819, 6946, 7115, 7157, 7185, 7207, 7233, 7300, 7357, 7393, 7471, 7540
 7549, 7700, 7752, 7754, 7766, 7768, 7796, 7882, 7884, 7889, 7941, 8079, 8175, 8177, 8245, 8308
 8343, 8364, 8376, 8490, 8525, 8533, 8538, 8543, 8544, 8545, 8637, 8653
*Elset, elset=_CP-37-interlocking-1_S4, internal, instance=interlocking-1
 6646, 6865
*Elset, elset=_CP-37-interlocking-1_S2, internal, instance=interlocking-1
 6662, 8143
*Elset, elset=_CP-37-interlocking-1_S1, internal, instance=interlocking-1
 8562,
*Surface, type=ELEMENT, name=CP-37-interlocking-1
_CP-37-interlocking-1_S3, S3
_CP-37-interlocking-1_S4, S4
_CP-37-interlocking-1_S2, S2
_CP-37-interlocking-1_S1, S1
*Elset, elset=_CP-38-f1_SNEG, internal, instance=f1, generate
 1737,  1757,     1
*Surface, type=ELEMENT, name=CP-38-f1
_CP-38-f1_SNEG, SNEG
*Elset, elset=_CP-38-interlocking-1_S4, internal, instance=interlocking-1
    3, 1603
*Elset, elset=_CP-38-interlocking-1_S3, internal, instance=interlocking-1
  172,  584,  733,  814,  817, 1046, 1048, 1459, 1524, 1544, 1546, 1566, 1588, 1599, 1602, 1606
 1611, 1620, 1623, 1628, 1642, 1757, 1840, 1962
*Elset, elset=_CP-38-interlocking-1_S1, internal, instance=interlocking-1
 1573,
*Elset, elset=_CP-38-interlocking-1_S2, internal, instance=interlocking-1
 1607, 1862
*Surface, type=ELEMENT, name=CP-38-interlocking-1
_CP-38-interlocking-1_S4, S4
_CP-38-interlocking-1_S3, S3
_CP-38-interlocking-1_S2, S2
_CP-38-interlocking-1_S1, S1
*Elset, elset=_CP-39-f1_SNEG, internal, instance=f1, generate
 1778,  1809,     1
*Surface, type=ELEMENT, name=CP-39-f1
_CP-39-f1_SNEG, SNEG
*Elset, elset=_CP-39-interlocking-1_S4, internal, instance=interlocking-1
 2239, 2246, 4136
*Elset, elset=_CP-39-interlocking-1_S1, internal, instance=interlocking-1
 2244,
*Elset, elset=_CP-39-interlocking-1_S3, internal, instance=interlocking-1
 2227, 2362, 2651, 2745, 2759, 2883, 3075, 3328, 3358, 3444, 3521, 3563, 3663, 3689, 3705, 3706
 3715, 3718, 3729, 3746, 3767, 3773, 3774, 3790, 3794, 3797, 3804, 3812, 3839, 3867, 3950, 4014
 4046, 4053, 4054, 4062, 4069, 4075, 4079, 4092, 4093, 4094, 4103, 4113, 4129, 4133, 4143, 4150
 4183, 4340, 4344, 4346, 4347
*Elset, elset=_CP-39-interlocking-1_S2, internal, instance=interlocking-1
 3851,
*Surface, type=ELEMENT, name=CP-39-interlocking-1
_CP-39-interlocking-1_S4, S4
_CP-39-interlocking-1_S1, S1
_CP-39-interlocking-1_S2, S2
_CP-39-interlocking-1_S3, S3
*Elset, elset=_CP-40-f1_SNEG, internal, instance=f1
 1810, 1811, 1812, 1813, 1814, 1815, 1816, 1817, 1818, 1819, 1820, 1821, 1822, 1823, 1824, 1825
 1826, 1827, 1828, 1829, 1830, 1871, 1872, 1873, 1874, 1875, 1876, 1877, 1878, 1879, 1880, 1881
 1882, 1883, 1884, 1885, 1886, 1887, 1888, 1889, 1890, 1891
*Surface, type=ELEMENT, name=CP-40-f1
_CP-40-f1_SNEG, SNEG
*Elset, elset=_CP-40-interlocking-1_S3, internal, instance=interlocking-1
 4539, 4558, 4571, 4932, 5024, 5255, 5504, 5540, 5546, 5624, 5699, 5712, 5729, 5762, 5783, 5842
 5850, 5865, 5871, 5873, 5880, 5893, 5894, 5941, 5943, 5985, 5991, 5995, 6008, 6009, 6039, 6070
 6078, 6192, 6211, 6274, 6288, 6306, 6307, 6308, 6311, 6319, 6322, 6325, 6328, 6331, 6335, 6338
 6358, 6382, 6447
*Elset, elset=_CP-40-interlocking-1_S4, internal, instance=interlocking-1
 4837, 4844, 5789, 6327
*Elset, elset=_CP-40-interlocking-1_S1, internal, instance=interlocking-1
 4842,
*Elset, elset=_CP-40-interlocking-1_S2, internal, instance=interlocking-1
 4846, 6059
*Surface, type=ELEMENT, name=CP-40-interlocking-1
_CP-40-interlocking-1_S3, S3
_CP-40-interlocking-1_S4, S4
_CP-40-interlocking-1_S2, S2
_CP-40-interlocking-1_S1, S1
*Elset, elset=_CP-41-f1_SNEG, internal, instance=f1, generate
 2067,  2098,     1
*Surface, type=ELEMENT, name=CP-41-f1
_CP-41-f1_SNEG, SNEG
*Elset, elset=_CP-41-interlocking-1_S3, internal, instance=interlocking-1
   82,   95,  178,  363,  642,  671,  798, 1186, 1223, 1486, 1512, 1513, 1643, 1666, 1668, 1702
 1749, 1812, 1831, 1834, 1838, 1851, 1853, 1855, 1857, 1860, 1868, 1870, 1890, 1892, 1897, 1929
 1932, 1934, 1942, 1943, 1945, 1948, 1957, 1961, 1969, 1976, 2003, 2012
*Elset, elset=_CP-41-interlocking-1_S1, internal, instance=interlocking-1
 1156,
*Elset, elset=_CP-41-interlocking-1_S4, internal, instance=interlocking-1
 1495, 1655, 1954
*Elset, elset=_CP-41-interlocking-1_S2, internal, instance=interlocking-1
 1533,
*Surface, type=ELEMENT, name=CP-41-interlocking-1
_CP-41-interlocking-1_S3, S3
_CP-41-interlocking-1_S1, S1
_CP-41-interlocking-1_S4, S4
_CP-41-interlocking-1_S2, S2
*Elset, elset=_CP-42-f1_SPOS, internal, instance=f1, generate
 2316,  4888,     1
*Surface, type=ELEMENT, name=CP-42-f1
_CP-42-f1_SPOS, SPOS
*Elset, elset=_CP-42-interlocking-1_S2, internal, instance=interlocking-1
 2210,
*Elset, elset=_CP-42-interlocking-1_S3, internal, instance=interlocking-1
 2714, 2884, 2938, 2972, 3137, 3360, 3385, 3447, 3638, 3726, 3763, 3805, 3806, 3928, 3936, 3954
 3956, 3969, 3973, 3978, 3979, 3981, 3987, 3988, 3992, 3997, 4001, 4013, 4016, 4033, 4038, 4039
 4045, 4065, 4078, 4081, 4082, 4104, 4108, 4145, 4151, 4235, 4295, 4334
*Elset, elset=_CP-42-interlocking-1_S4, internal, instance=interlocking-1
 3139, 3643, 3788
*Elset, elset=_CP-42-interlocking-1_S1, internal, instance=interlocking-1
 3864,
*Surface, type=ELEMENT, name=CP-42-interlocking-1
_CP-42-interlocking-1_S2, S2
_CP-42-interlocking-1_S3, S3
_CP-42-interlocking-1_S4, S4
_CP-42-interlocking-1_S1, S1
*Elset, elset=_CP-43-f1_SPOS, internal, instance=f1, generate
 2316,  4888,     1
*Surface, type=ELEMENT, name=CP-43-f1
_CP-43-f1_SPOS, SPOS
*Elset, elset=_CP-43-interlocking-1_S3, internal, instance=interlocking-1
 2331, 2793, 2795, 2864, 3047, 3095, 3109, 3190, 3193, 3230, 3236, 3291, 3293, 3405, 3592, 3606
 3635, 3831, 3883, 3888, 3908, 3922, 3930, 3935, 3967, 4042, 4140, 4304, 4307, 4312, 4332
*Elset, elset=_CP-43-interlocking-1_S2, internal, instance=interlocking-1
 2807, 3766, 3882, 3886, 3890, 3898, 3957, 3968, 4272, 4333
*Elset, elset=_CP-43-interlocking-1_S1, internal, instance=interlocking-1
 3333, 3889, 3899, 4301
*Elset, elset=_CP-43-interlocking-1_S4, internal, instance=interlocking-1
 3891, 3906, 3948, 4207
*Surface, type=ELEMENT, name=CP-43-interlocking-1
_CP-43-interlocking-1_S3, S3
_CP-43-interlocking-1_S2, S2
_CP-43-interlocking-1_S4, S4
_CP-43-interlocking-1_S1, S1
*Elset, elset=_CP-44-interlocking-1_S3, internal, instance=interlocking-1
 5230, 5398, 5400, 5807, 5864, 5907, 5916, 5919, 5928, 5931, 5936, 5939, 5944, 5947, 5951, 5953
 5956, 5958, 5964, 5971, 6001, 6088, 6165, 6196, 6286
*Elset, elset=_CP-44-interlocking-1_S4, internal, instance=interlocking-1
 5932,
*Elset, elset=_CP-44-interlocking-1_S2, internal, instance=interlocking-1
 5940, 6086, 6177
*Surface, type=ELEMENT, name=CP-44-interlocking-1
_CP-44-interlocking-1_S3, S3
_CP-44-interlocking-1_S4, S4
_CP-44-interlocking-1_S2, S2
*Elset, elset=_CP-45-interlocking-1_S3, internal, instance=interlocking-1
   78,  200,  531,  664,  712,  713,  793, 1023, 1035, 1242, 1319, 1431, 1490, 1764, 1769, 1796
 1797, 1802, 1805, 1807, 1818, 1821, 1845, 1849, 1866, 1907, 1922, 1998, 2039, 2096, 2130
*Elset, elset=_CP-45-interlocking-1_S2, internal, instance=interlocking-1
  166, 1579, 1600, 1649, 1767, 1774, 1847, 1928
*Elset, elset=_CP-45-interlocking-1_S1, internal, instance=interlocking-1
  169,  811, 1639, 1770, 1775, 1788, 1966
*Elset, elset=_CP-45-interlocking-1_S4, internal, instance=interlocking-1
 1825, 1841, 1848
*Surface, type=ELEMENT, name=CP-45-interlocking-1
_CP-45-interlocking-1_S3, S3
_CP-45-interlocking-1_S2, S2
_CP-45-interlocking-1_S4, S4
_CP-45-interlocking-1_S1, S1
*Elset, elset=_CP-46-interlocking-1_S3, internal, instance=interlocking-1
 2607, 2751, 3161, 3243, 3677, 3698, 3716, 3741, 3748, 3753, 3759, 3762, 3769, 3770, 3808, 3880
 3964, 3980, 4002, 4085, 4115
*Elset, elset=_CP-46-interlocking-1_S4, internal, instance=interlocking-1
 3041, 3742, 3879
*Elset, elset=_CP-46-interlocking-1_S1, internal, instance=interlocking-1
 3568, 3714
*Elset, elset=_CP-46-interlocking-1_S2, internal, instance=interlocking-1
 3615, 3745, 3973
*Surface, type=ELEMENT, name=CP-46-interlocking-1
_CP-46-interlocking-1_S3, S3
_CP-46-interlocking-1_S4, S4
_CP-46-interlocking-1_S2, S2
_CP-46-interlocking-1_S1, S1
*Elset, elset=_CP-47-interlocking-1_S4, internal, instance=interlocking-1
 2417, 2904, 3733, 3880, 4084
*Elset, elset=_CP-47-interlocking-1_S3, internal, instance=interlocking-1
 2922, 3163, 3239, 3284, 3338, 3676, 3684, 3699, 3700, 3701, 3702, 3710, 3722, 3728, 3740, 3744
 3747, 3752, 3829, 3837, 4095
*Elset, elset=_CP-47-interlocking-1_S2, internal, instance=interlocking-1
 3716, 3879
*Elset, elset=_CP-47-interlocking-1_S1, internal, instance=interlocking-1
 4002,
*Surface, type=ELEMENT, name=CP-47-interlocking-1
_CP-47-interlocking-1_S4, S4
_CP-47-interlocking-1_S3, S3
_CP-47-interlocking-1_S2, S2
_CP-47-interlocking-1_S1, S1
*Elset, elset=_CP-48-interlocking-1_S4, internal, instance=interlocking-1
 6588, 8078, 8234, 8683, 8691
*Elset, elset=_CP-48-interlocking-1_S3, internal, instance=interlocking-1
 6749, 7189, 7451, 7954, 7978, 8027, 8044, 8045, 8057, 8065, 8068, 8071, 8074, 8090, 8095, 8100
 8107, 8179, 8182, 8275, 8294, 8387
*Elset, elset=_CP-48-interlocking-1_S2, internal, instance=interlocking-1
 8063,
*Elset, elset=_CP-48-interlocking-1_S1, internal, instance=interlocking-1
 8320,
*Surface, type=ELEMENT, name=CP-48-interlocking-1
_CP-48-interlocking-1_S4, S4
_CP-48-interlocking-1_S3, S3
_CP-48-interlocking-1_S2, S2
_CP-48-interlocking-1_S1, S1
*Elset, elset=_CP-49-interlocking-1_S1, internal, instance=interlocking-1
 6997, 8373
*Elset, elset=_CP-49-interlocking-1_S3, internal, instance=interlocking-1
 7339, 7585, 7965, 7973, 7988, 8011, 8062, 8113, 8127, 8132, 8144, 8145, 8150, 8176, 8219, 8221
 8238, 8289, 8307, 8310, 8314, 8325, 8327, 8328, 8330, 8331, 8332, 8335, 8344, 8349, 8351, 8359
 8380, 8385, 8391, 8392, 8397, 8399, 8401, 8403, 8408, 8415, 8417, 8479, 8687, 8695
*Elset, elset=_CP-49-interlocking-1_S4, internal, instance=interlocking-1
 8388,
*Surface, type=ELEMENT, name=CP-49-interlocking-1
_CP-49-interlocking-1_S1, S1
_CP-49-interlocking-1_S3, S3
_CP-49-interlocking-1_S4, S4
*Elset, elset=_CP-50-interlocking-1_S3, internal, instance=interlocking-1
 7742, 7800, 7972, 7983, 8063, 8085, 8087, 8091, 8096, 8102, 8106, 8109, 8110, 8111, 8112, 8114
 8115, 8119, 8140, 8146, 8160, 8234, 8405, 8683, 8704
*Elset, elset=_CP-50-interlocking-1_S4, internal, instance=interlocking-1
 8088,
*Elset, elset=_CP-50-interlocking-1_S2, internal, instance=interlocking-1
 8101, 8320
*Elset, elset=_CP-50-interlocking-1_S1, internal, instance=interlocking-1
 8344,
*Surface, type=ELEMENT, name=CP-50-interlocking-1
_CP-50-interlocking-1_S3, S3
_CP-50-interlocking-1_S4, S4
_CP-50-interlocking-1_S2, S2
_CP-50-interlocking-1_S1, S1
*Elset, elset=_CP-51-interlocking-1_S3, internal, instance=interlocking-1
 6875, 7101, 7202, 7345, 7360, 7458, 7560, 7639, 7748, 7770, 7808, 7903, 7904, 7933, 7935, 8235
 8243, 8252, 8253, 8262, 8266, 8269, 8277, 8279, 8346, 8390, 8474, 8493, 8577, 8599, 8675, 8686
*Elset, elset=_CP-51-interlocking-1_S2, internal, instance=interlocking-1
 7582, 7931, 8237, 8248, 8251, 8313, 8644, 8663
*Elset, elset=_CP-51-interlocking-1_S1, internal, instance=interlocking-1
 8244, 8260, 8303, 8547, 8635, 8662
*Elset, elset=_CP-51-interlocking-1_S4, internal, instance=interlocking-1
 8257, 8287, 8494
*Surface, type=ELEMENT, name=CP-51-interlocking-1
_CP-51-interlocking-1_S3, S3
_CP-51-interlocking-1_S2, S2
_CP-51-interlocking-1_S4, S4
_CP-51-interlocking-1_S1, S1
*Elset, elset=_CP-52-interlocking-1_S3, internal, instance=interlocking-1
  727,  819, 1050, 1288, 1326, 1529, 1547, 1548, 1561, 1572, 1575, 1577, 1583, 1590, 1605, 1609
 1614, 1706, 1708, 1936, 1947, 2183
*Elset, elset=_CP-52-interlocking-1_S4, internal, instance=interlocking-1
  764, 1487, 1642, 1757, 1836
*Elset, elset=_CP-52-interlocking-1_S2, internal, instance=interlocking-1
 1566,
*Elset, elset=_CP-52-interlocking-1_S1, internal, instance=interlocking-1
 1862,
*Surface, type=ELEMENT, name=CP-52-interlocking-1
_CP-52-interlocking-1_S3, S3
_CP-52-interlocking-1_S4, S4
_CP-52-interlocking-1_S2, S2
_CP-52-interlocking-1_S1, S1
*Elset, elset=_CP-53-interlocking-1_S3, internal, instance=interlocking-1
 4985, 5038, 5211, 5217, 5284, 5372, 5403, 5408, 5462, 5471, 5477, 5505, 5765, 5767, 5768, 5813
 6051, 6098, 6102, 6103, 6116, 6130, 6131, 6135, 6151, 6220, 6231, 6238, 6389, 6453, 6502, 6511
*Elset, elset=_CP-53-interlocking-1_S4, internal, instance=interlocking-1
 5684, 6113, 6160
*Elset, elset=_CP-53-interlocking-1_S2, internal, instance=interlocking-1
 5927, 6018, 6097, 6109, 6117, 6170, 6171, 6383, 6471
*Elset, elset=_CP-53-interlocking-1_S1, internal, instance=interlocking-1
 6004, 6105, 6126, 6127, 6499
*Surface, type=ELEMENT, name=CP-53-interlocking-1
_CP-53-interlocking-1_S3, S3
_CP-53-interlocking-1_S4, S4
_CP-53-interlocking-1_S2, S2
_CP-53-interlocking-1_S1, S1
*Elset, elset=_CP-54-interlocking-1_S3, internal, instance=interlocking-1
 6605, 6676, 6792, 6868, 6932, 7029, 7106, 7260, 7422, 7537, 7598, 7784, 7868, 7914, 7923, 7925
 8031, 8050, 8067, 8070, 8094, 8105, 8116, 8117, 8122, 8128, 8129, 8133, 8135, 8147, 8152, 8171
 8180, 8207, 8211, 8214, 8350, 8395, 8402, 8407, 8437, 8438, 8439, 8455, 8461, 8464, 8475, 8480
 8488, 8499, 8518, 8521, 8672, 8673
*Elset, elset=_CP-54-interlocking-1_S4, internal, instance=interlocking-1
 6634, 7372
*Elset, elset=_CP-54-interlocking-1_S2, internal, instance=interlocking-1
 6808,
*Elset, elset=_CP-54-interlocking-1_S1, internal, instance=interlocking-1
 7782,
*Surface, type=ELEMENT, name=CP-54-interlocking-1
_CP-54-interlocking-1_S3, S3
_CP-54-interlocking-1_S4, S4
_CP-54-interlocking-1_S2, S2
_CP-54-interlocking-1_S1, S1
*Elset, elset=_CP-55-interlocking-1_S3, internal, instance=interlocking-1
 4638, 4666, 4695, 4769, 4777, 5058, 5264, 5657, 5829, 5926, 5967, 5968, 5983, 5989, 6006, 6007
 6079, 6080, 6166, 6175, 6177, 6184, 6185, 6189, 6190, 6193, 6197, 6203, 6213, 6218, 6222, 6225
 6227, 6242, 6248, 6251, 6253, 6254, 6259, 6261, 6268, 6301, 6304, 6353, 6354, 6377
*Elset, elset=_CP-55-interlocking-1_S1, internal, instance=interlocking-1
 5520,
*Elset, elset=_CP-55-interlocking-1_S2, internal, instance=interlocking-1
 5640, 6290
*Surface, type=ELEMENT, name=CP-55-interlocking-1
_CP-55-interlocking-1_S3, S3
_CP-55-interlocking-1_S1, S1
_CP-55-interlocking-1_S2, S2
*Elset, elset=_CP-56-interlocking-1_S3, internal, instance=interlocking-1
 4414, 4508, 4623, 4725, 4819, 4864, 4883, 4908, 4912, 4918, 4926, 4991, 5035, 5061, 5098, 5249
 5289, 5293, 5294, 5510, 5542, 5564, 5594, 5607, 5639, 5648, 5685, 5711, 5775, 5786, 5806, 5809
 5837, 5840, 5841, 5846, 5854, 5861, 5870, 5875, 5877, 5882, 5886, 5889, 5890, 5897, 5904, 5924
 5945, 5963, 5974, 5992, 6013, 6014, 6050, 6056, 6062, 6069, 6074, 6075, 6162, 6188, 6229, 6260
 6270, 6305, 6309, 6310, 6313, 6316, 6321, 6323, 6324, 6332, 6337, 6367, 6391, 6400, 6403, 6413
 6416, 6426, 6437, 6505
*Elset, elset=_CP-56-interlocking-1_S1, internal, instance=interlocking-1
 5865, 5869, 5940, 6021, 6023, 6233, 6284, 6327, 6338, 6358, 6380, 6410, 6492
*Elset, elset=_CP-56-interlocking-1_S4, internal, instance=interlocking-1
 5888, 5958, 6217, 6288
*Elset, elset=_CP-56-interlocking-1_S2, internal, instance=interlocking-1
 5457, 5879, 5919, 5921, 5980, 5991, 6012, 6070, 6094, 6176, 6286, 6307, 6333, 6422, 6444
*Surface, type=ELEMENT, name=CP-56-interlocking-1
_CP-56-interlocking-1_S3, S3
_CP-56-interlocking-1_S1, S1
_CP-56-interlocking-1_S4, S4
_CP-56-interlocking-1_S2, S2
*Elset, elset=_CP-57-interlocking-1_S1, internal, instance=interlocking-1
  534, 1529, 1606, 1607, 2033, 2062, 2131
*Elset, elset=_CP-57-interlocking-1_S3, internal, instance=interlocking-1
   77,  111,  218,  389,  419,  474,  482,  577,  585,  587,  598,  698,  714,  732,  757,  943
  944, 1049, 1110, 1127, 1282, 1317, 1321, 1359, 1368, 1401, 1427, 1473, 1474, 1476, 1500, 1502
 1526, 1527, 1530, 1531, 1536, 1538, 1539, 1550, 1551, 1554, 1560, 1570, 1576, 1582, 1587, 1592
 1598, 1610, 1621, 1653, 1692, 1700, 1717, 1720, 1723, 1741, 1742, 1803, 1844, 1850, 1865, 1876
 1879, 1914, 1915, 1953, 1965, 1970, 1985, 1988, 2010, 2017, 2040, 2044, 2052, 2055, 2057, 2094
 2099, 2103, 2114, 2121, 2178
*Elset, elset=_CP-57-interlocking-1_S4, internal, instance=interlocking-1
 1315, 1548, 1620, 1638, 1686, 1947, 1964, 2027, 2036, 2100
*Elset, elset=_CP-57-interlocking-1_S2, internal, instance=interlocking-1
 1492, 1524, 1590, 1656, 1657, 1963, 1972, 1987, 2030, 2046, 2056, 2102, 2122, 2179
*Surface, type=ELEMENT, name=CP-57-interlocking-1
_CP-57-interlocking-1_S1, S1
_CP-57-interlocking-1_S3, S3
_CP-57-interlocking-1_S4, S4
_CP-57-interlocking-1_S2, S2
*Elset, elset=_CP-58-interlocking-1_S3, internal, instance=interlocking-1
 6599, 6757, 7674, 7846, 7847, 7886, 7916, 7918, 7931, 7970, 8015, 8017, 8242, 8244, 8290, 8303
 8306, 8431, 8456, 8564, 8567, 8571, 8573, 8582, 8584, 8600, 8615, 8622, 8626, 8630, 8635, 8639
 8643, 8666
*Elset, elset=_CP-58-interlocking-1_S4, internal, instance=interlocking-1
 7188, 7619, 8227, 8604
*Elset, elset=_CP-58-interlocking-1_S2, internal, instance=interlocking-1
 7669, 8259, 8423, 8546, 8602, 8649, 8659
*Elset, elset=_CP-58-interlocking-1_S1, internal, instance=interlocking-1
 7702, 8222, 8576, 8595
*Surface, type=ELEMENT, name=CP-58-interlocking-1
_CP-58-interlocking-1_S3, S3
_CP-58-interlocking-1_S4, S4
_CP-58-interlocking-1_S2, S2
_CP-58-interlocking-1_S1, S1
*Elset, elset=_CP-59-interlocking-1_S4, internal, instance=interlocking-1
   62, 1352
*Elset, elset=_CP-59-interlocking-1_S3, internal, instance=interlocking-1
  316,  472,  700,  846,  911,  973, 1005, 1009, 1010, 1069, 1075, 1212, 1215, 1219, 1251, 1253
 1267, 1414, 1505, 1507, 1509, 1515, 1574, 1581, 1882, 1916, 1982, 1984, 2022, 2050, 2051, 2054
 2072, 2079, 2083, 2085, 2089, 2090, 2098, 2105, 2109, 2115, 2120, 2140, 2169, 2186
*Elset, elset=_CP-59-interlocking-1_S1, internal, instance=interlocking-1
 1993,
*Surface, type=ELEMENT, name=CP-59-interlocking-1
_CP-59-interlocking-1_S4, S4
_CP-59-interlocking-1_S3, S3
_CP-59-interlocking-1_S1, S1
*Elset, elset=_CP-60-interlocking-1_S3, internal, instance=interlocking-1
  322, 1377, 1617, 1703, 1829, 1913, 2037, 2046, 2059, 2064, 2075, 2092, 2100, 2101, 2112, 2119
 2131, 2152, 2163, 2172, 2173, 2175, 2179
*Elset, elset=_CP-60-interlocking-1_S1, internal, instance=interlocking-1
 1863,
*Elset, elset=_CP-60-interlocking-1_S2, internal, instance=interlocking-1
 1875, 2028
*Elset, elset=_CP-60-interlocking-1_S4, internal, instance=interlocking-1
 2047, 2125, 2129
*Surface, type=ELEMENT, name=CP-60-interlocking-1
_CP-60-interlocking-1_S3, S3
_CP-60-interlocking-1_S1, S1
_CP-60-interlocking-1_S2, S2
_CP-60-interlocking-1_S4, S4
*Elset, elset=_CP-61-interlocking-1_S3, internal, instance=interlocking-1
 6923, 7109, 8355, 8442, 8452, 8486, 8487, 8491, 8506, 8515, 8516, 8520, 8532, 8541, 8554, 8560
 8561, 8575, 8588, 8589, 8591, 8597, 8613, 8645, 8678, 8696
*Elset, elset=_CP-61-interlocking-1_S1, internal, instance=interlocking-1
 7633, 8688
*Elset, elset=_CP-61-interlocking-1_S4, internal, instance=interlocking-1
 8441,
*Surface, type=ELEMENT, name=CP-61-interlocking-1
_CP-61-interlocking-1_S3, S3
_CP-61-interlocking-1_S1, S1
_CP-61-interlocking-1_S4, S4
*Elset, elset=_CP-62-interlocking-1_S3, internal, instance=interlocking-1
 2486, 2723, 3525, 3528, 3653, 3691, 3779, 3780, 3881, 3982, 4203, 4205, 4245, 4253, 4261, 4263
 4270, 4281, 4292, 4302, 4322, 4324, 4330, 4338
*Elset, elset=_CP-62-interlocking-1_S1, internal, instance=interlocking-1
 4076,
*Elset, elset=_CP-62-interlocking-1_S2, internal, instance=interlocking-1
 4088, 4234
*Elset, elset=_CP-62-interlocking-1_S4, internal, instance=interlocking-1
 4191, 4327
*Surface, type=ELEMENT, name=CP-62-interlocking-1
_CP-62-interlocking-1_S3, S3
_CP-62-interlocking-1_S1, S1
_CP-62-interlocking-1_S2, S2
_CP-62-interlocking-1_S4, S4
*Elset, elset=_CP-63-interlocking-1_S4, internal, instance=interlocking-1
 1006,
*Elset, elset=_CP-63-interlocking-1_S1, internal, instance=interlocking-1
 1469,
*Elset, elset=_CP-63-interlocking-1_S3, internal, instance=interlocking-1
 1516, 1784, 1863, 1873, 1874, 1875, 1878, 1888, 1926, 1950, 1959, 1960, 1963, 1972, 1991, 2006
 2018, 2019, 2021, 2028, 2041, 2062, 2074, 2122, 2125, 2184
*Elset, elset=_CP-63-interlocking-1_S2, internal, instance=interlocking-1
 1919,
*Surface, type=ELEMENT, name=CP-63-interlocking-1
_CP-63-interlocking-1_S4, S4
_CP-63-interlocking-1_S1, S1
_CP-63-interlocking-1_S2, S2
_CP-63-interlocking-1_S3, S3
*Elset, elset=_CP-64-interlocking-1_S3, internal, instance=interlocking-1
  108,  269,  359,  678, 1099, 1137, 1148, 1355, 1384, 1435, 1439, 1521, 1580, 1600, 1613, 1695
 1730, 1770, 1825, 1828, 1887, 1889, 1901, 1912, 1966, 1978, 1996, 2086, 2124, 2126, 2132, 2133
 2136, 2155, 2181
*Elset, elset=_CP-64-interlocking-1_S2, internal, instance=interlocking-1
  856, 1585, 1684, 1858, 1872, 2150
*Elset, elset=_CP-64-interlocking-1_S4, internal, instance=interlocking-1
 1263, 1696, 1787, 2134, 2157
*Elset, elset=_CP-64-interlocking-1_S1, internal, instance=interlocking-1
 1661, 2138, 2141
*Surface, type=ELEMENT, name=CP-64-interlocking-1
_CP-64-interlocking-1_S3, S3
_CP-64-interlocking-1_S2, S2
_CP-64-interlocking-1_S4, S4
_CP-64-interlocking-1_S1, S1
*Elset, elset=_CP-65-interlocking-1_S3, internal, instance=interlocking-1
 2280, 2380, 2463, 2543, 2780, 2782, 2846, 2850, 2978, 3010, 3018, 3044, 3226, 3305, 3377, 3386
 3490, 3496, 3499, 3514, 3580, 3660, 3695, 3764, 3820, 3873, 3972, 4009, 4011, 4012, 4036, 4117
 4118, 4147, 4165, 4184, 4186, 4197, 4221, 4222, 4287, 4337, 4341, 4353
*Elset, elset=_CP-65-interlocking-1_S4, internal, instance=interlocking-1
 2359, 2591
*Elset, elset=_CP-65-interlocking-1_S2, internal, instance=interlocking-1
 3367, 4324
*Elset, elset=_CP-65-interlocking-1_S1, internal, instance=interlocking-1
 4200,
*Surface, type=ELEMENT, name=CP-65-interlocking-1
_CP-65-interlocking-1_S3, S3
_CP-65-interlocking-1_S4, S4
_CP-65-interlocking-1_S2, S2
_CP-65-interlocking-1_S1, S1
*Elset, elset=_CP-66-interlocking-1_S3, internal, instance=interlocking-1
 4667, 4788, 4899, 5344, 5654, 5758, 5955, 6021, 6087, 6209, 6291, 6330, 6401, 6408, 6410, 6414
 6417, 6422, 6429, 6441, 6484, 6492, 6501, 6518
*Elset, elset=_CP-66-interlocking-1_S2, internal, instance=interlocking-1
 6140, 6240, 6394
*Elset, elset=_CP-66-interlocking-1_S4, internal, instance=interlocking-1
 6486, 6489
*Surface, type=ELEMENT, name=CP-66-interlocking-1
_CP-66-interlocking-1_S3, S3
_CP-66-interlocking-1_S2, S2
_CP-66-interlocking-1_S4, S4
*Elset, elset=_CP-67-interlocking-1_S3, internal, instance=interlocking-1
 2485, 4076, 4077, 4086, 4088, 4105, 4124, 4132, 4148, 4158, 4161, 4163, 4171, 4173, 4174, 4176
 4198, 4216, 4225, 4226, 4229, 4233, 4234, 4249, 4280, 4305, 4327
*Elset, elset=_CP-67-interlocking-1_S1, internal, instance=interlocking-1
 4049,
*Elset, elset=_CP-67-interlocking-1_S4, internal, instance=interlocking-1
 4067,
*Surface, type=ELEMENT, name=CP-67-interlocking-1
_CP-67-interlocking-1_S3, S3
_CP-67-interlocking-1_S1, S1
_CP-67-interlocking-1_S4, S4
*Elset, elset=_CP-68-interlocking-1_S3, internal, instance=interlocking-1
 2715, 2957, 3202, 3299, 3493, 3510, 3575, 3610, 3611, 3671, 3870, 3877, 3889, 3921, 3937, 3943
 3948, 3949, 3953, 3983, 4004, 4051, 4109, 4185, 4204, 4236, 4239, 4242, 4268, 4272, 4279, 4285
 4294, 4298, 4301
*Elset, elset=_CP-68-interlocking-1_S2, internal, instance=interlocking-1
 3772, 3887, 3971, 4061, 4264, 4315, 4317
*Elset, elset=_CP-68-interlocking-1_S1, internal, instance=interlocking-1
 3857, 3910, 4255, 4257
*Elset, elset=_CP-68-interlocking-1_S4, internal, instance=interlocking-1
 3884, 3990, 4266
*Surface, type=ELEMENT, name=CP-68-interlocking-1
_CP-68-interlocking-1_S3, S3
_CP-68-interlocking-1_S2, S2
_CP-68-interlocking-1_S4, S4
_CP-68-interlocking-1_S1, S1
*Elset, elset=_CP-69-interlocking-1_S3, internal, instance=interlocking-1
 4438, 4606, 4620, 4830, 5023, 5135, 5193, 5262, 5285, 5407, 5485, 5486, 5507, 5523, 5524, 5528
 5713, 5717, 5721, 5772, 5876, 5895, 5911, 6067, 6249, 6293, 6294, 6320, 6342, 6386, 6402, 6406
 6425, 6428, 6431, 6433, 6448, 6450, 6461, 6468, 6509, 6517, 6529
*Elset, elset=_CP-69-interlocking-1_S4, internal, instance=interlocking-1
 5227, 5405, 6341
*Elset, elset=_CP-69-interlocking-1_S1, internal, instance=interlocking-1
 6361,
*Elset, elset=_CP-69-interlocking-1_S2, internal, instance=interlocking-1
 6439, 6518
*Surface, type=ELEMENT, name=CP-69-interlocking-1
_CP-69-interlocking-1_S3, S3
_CP-69-interlocking-1_S4, S4
_CP-69-interlocking-1_S2, S2
_CP-69-interlocking-1_S1, S1
*Elset, elset=_CP-70-interlocking-1_S3, internal, instance=interlocking-1
 6938, 6980, 7079, 7248, 7436, 7556, 7636, 7860, 8143, 8507, 8529, 8535, 8608, 8609, 8612, 8627
 8636, 8640, 8646, 8647, 8657, 8690, 8701
*Elset, elset=_CP-70-interlocking-1_S2, internal, instance=interlocking-1
 8432, 8442, 8597
*Elset, elset=_CP-70-interlocking-1_S4, internal, instance=interlocking-1
 8677, 8696, 8699
*Surface, type=ELEMENT, name=CP-70-interlocking-1
_CP-70-interlocking-1_S3, S3
_CP-70-interlocking-1_S2, S2
_CP-70-interlocking-1_S4, S4
*Elset, elset=_CP-71-interlocking-1_S3, internal, instance=interlocking-1
 5667, 6140, 6237, 6240, 6241, 6244, 6265, 6267, 6272, 6284, 6287, 6303, 6314, 6329, 6333, 6344
 6359, 6380, 6384, 6387, 6390, 6394, 6399, 6432, 6440, 6444, 6489
*Elset, elset=_CP-71-interlocking-1_S4, internal, instance=interlocking-1
 6228,
*Elset, elset=_CP-71-interlocking-1_S2, internal, instance=interlocking-1
 6283,
*Surface, type=ELEMENT, name=CP-71-interlocking-1
_CP-71-interlocking-1_S3, S3
_CP-71-interlocking-1_S4, S4
_CP-71-interlocking-1_S2, S2
*Elset, elset=_CP-72-interlocking-1_S3, internal, instance=interlocking-1
 4531, 4567, 5385, 5529, 5596, 5626, 5686, 5687, 5799, 5803, 5855, 5860, 6105, 6134, 6160, 6164
 6202, 6207, 6250, 6258, 6273, 6346, 6351, 6366, 6372, 6381, 6446, 6460, 6471, 6475, 6480, 6488
 6495, 6499
*Elset, elset=_CP-72-interlocking-1_S1, internal, instance=interlocking-1
 5355, 5998, 6024, 6467
*Elset, elset=_CP-72-interlocking-1_S2, internal, instance=interlocking-1
 6052, 6058, 6221, 6345, 6452, 6476, 6520, 6527
*Elset, elset=_CP-72-interlocking-1_S4, internal, instance=interlocking-1
 6061, 6149, 6474
*Surface, type=ELEMENT, name=CP-72-interlocking-1
_CP-72-interlocking-1_S3, S3
_CP-72-interlocking-1_S1, S1
_CP-72-interlocking-1_S2, S2
_CP-72-interlocking-1_S4, S4
*Elset, elset=_CP-73-interlocking-1_S3, internal, instance=interlocking-1
 6584, 6658, 6670, 6730, 6819, 6946, 7115, 7157, 7185, 7207, 7233, 7300, 7357, 7393, 7471, 7540
 7549, 7700, 7752, 7754, 7766, 7768, 7796, 7882, 7884, 7889, 7941, 8079, 8175, 8177, 8245, 8308
 8343, 8364, 8376, 8490, 8525, 8533, 8538, 8543, 8544, 8545, 8637, 8653
*Elset, elset=_CP-73-interlocking-1_S4, internal, instance=interlocking-1
 6646, 6865
*Elset, elset=_CP-73-interlocking-1_S2, internal, instance=interlocking-1
 6662, 8143
*Elset, elset=_CP-73-interlocking-1_S1, internal, instance=interlocking-1
 8562,
*Surface, type=ELEMENT, name=CP-73-interlocking-1
_CP-73-interlocking-1_S3, S3
_CP-73-interlocking-1_S4, S4
_CP-73-interlocking-1_S2, S2
_CP-73-interlocking-1_S1, S1
*Elset, elset=_Surf-55_S3, internal, instance=interlocking-1
  218,  389,  474,  698,  714, 1110, 1282, 1536, 1621, 1879, 2010, 2055, 2057, 2094, 2099, 2103
 2114, 2178, 2526, 2597, 2738, 2887, 3468, 3648, 3672, 3687, 4005, 4107, 4157, 4169, 4193, 4199
 4208, 4209, 4224, 4227, 4247, 4725, 4883, 5061, 5249, 5542, 5594, 5607, 5648, 5861, 6162, 6260
 6309, 6367, 6391, 6400, 6403, 6413, 6416, 6426, 6437, 6620, 6851, 7110, 7201, 7486, 7760, 8429
 8489, 8517, 8528, 8534, 8537, 8556, 8558, 8570, 8601, 8610, 8633
*Elset, elset=_Surf-55_S4, internal, instance=interlocking-1
 1315, 2100, 4276, 7156, 7629
*Elset, elset=_Surf-55_S2, internal, instance=interlocking-1
 1963, 1972, 2046, 2056, 2102, 2122, 2179, 3280, 3691, 4176, 4205, 4233, 4292, 5457, 6333, 6422
 6444, 7436, 7482, 8507, 8541, 8561, 8657
*Elset, elset=_Surf-55_S1, internal, instance=interlocking-1
 2062, 2131, 4163, 4174, 4330, 6021, 6284, 6380, 6410, 6492, 8506, 8515, 8701
*Surface, type=ELEMENT, name=Surf-55
_Surf-55_S3, S3
_Surf-55_S4, S4
_Surf-55_S2, S2
_Surf-55_S1, S1
*Rigid Body, ref node=f1.frame-RefPt_, elset=f1.frame
*End Assembly
** 
** MATERIALS
** 
*Material, name=high-strength
*Elastic
 2e+12, 0.3
** 
** INTERACTION PROPERTIES
** 
*Surface Interaction, name=IntProp-1
1.,
*Friction
0.,
*Surface Behavior, pressure-overclosure=HARD
** 
** INTERACTIONS
** 
** Interaction: CP-3-f1-interlocking-1
*Contact Pair, interaction=IntProp-1, type=SURFACE TO SURFACE
CP-38-interlocking-1, CP-24-f1
** Interaction: CP-4-f1-interlocking-1
*Contact Pair, interaction=IntProp-1, type=SURFACE TO SURFACE
CP-39-interlocking-1, CP-25-f1
** Interaction: CP-5-f1-interlocking-1
*Contact Pair, interaction=IntProp-1, type=SURFACE TO SURFACE
CP-40-interlocking-1, CP-26-f1
** Interaction: CP-6-f1-interlocking-1
*Contact Pair, interaction=IntProp-1, type=SURFACE TO SURFACE
CP-41-interlocking-1, CP-27-f1
** Interaction: CP-7-f1-interlocking-1
*Contact Pair, interaction=IntProp-1, type=SURFACE TO SURFACE
CP-42-interlocking-1, CP-28-f1
** Interaction: CP-8-f1-interlocking-1
*Contact Pair, interaction=IntProp-1, type=SURFACE TO SURFACE
CP-43-interlocking-1, CP-29-f1
** Interaction: CP-9-f1-interlocking-1
*Contact Pair, interaction=IntProp-1, type=SURFACE TO SURFACE
CP-44-interlocking-1, CP-30-f1
** Interaction: CP-10-f1-interlocking-1
*Contact Pair, interaction=IntProp-1, type=SURFACE TO SURFACE
CP-45-interlocking-1, CP-31-f1
** Interaction: CP-11-f1-interlocking-1
*Contact Pair, interaction=IntProp-1, type=SURFACE TO SURFACE
CP-46-interlocking-1, CP-32-f1
** Interaction: CP-12-f1-interlocking-1
*Contact Pair, interaction=IntProp-1, type=SURFACE TO SURFACE
CP-47-interlocking-1, CP-33-f1
** Interaction: CP-13-f1-interlocking-1
*Contact Pair, interaction=IntProp-1, type=SURFACE TO SURFACE
CP-48-interlocking-1, CP-34-f1
** Interaction: CP-14-f1-interlocking-1
*Contact Pair, interaction=IntProp-1, type=SURFACE TO SURFACE
CP-49-interlocking-1, CP-35-f1
** Interaction: CP-15-f1-interlocking-1
*Contact Pair, interaction=IntProp-1, type=SURFACE TO SURFACE
CP-50-interlocking-1, CP-36-f1
** Interaction: CP-16-f1-interlocking-1
*Contact Pair, interaction=IntProp-1, type=SURFACE TO SURFACE
CP-51-interlocking-1, CP-37-f1
** Interaction: CP-17-f1-interlocking-1
*Contact Pair, interaction=IntProp-1, type=SURFACE TO SURFACE
CP-52-interlocking-1, CP-38-f1
** Interaction: CP-18-f1-interlocking-1
*Contact Pair, interaction=IntProp-1, type=SURFACE TO SURFACE
CP-53-interlocking-1, CP-39-f1
** Interaction: CP-19-f1-interlocking-1
*Contact Pair, interaction=IntProp-1, type=SURFACE TO SURFACE
CP-54-interlocking-1, CP-40-f1
** Interaction: CP-20-f1-interlocking-1
*Contact Pair, interaction=IntProp-1, type=SURFACE TO SURFACE
CP-55-interlocking-1, CP-41-f1
** Interaction: CP-21-f1-interlocking-1
*Contact Pair, interaction=IntProp-1, type=SURFACE TO SURFACE
CP-56-interlocking-1, CP-42-f1
** Interaction: CP-22-f1-interlocking-1
*Contact Pair, interaction=IntProp-1, type=SURFACE TO SURFACE
CP-57-interlocking-1, CP-43-f1
** Interaction: CP-23-interlocking-1-interlocking-1
*Contact Pair, interaction=IntProp-1, type=SURFACE TO SURFACE
CP-59-interlocking-1, CP-58-interlocking-1
** Interaction: CP-24-interlocking-1-interlocking-1
*Contact Pair, interaction=IntProp-1, type=SURFACE TO SURFACE
CP-61-interlocking-1, CP-60-interlocking-1
** Interaction: CP-25-interlocking-1-interlocking-1
*Contact Pair, interaction=IntProp-1, type=SURFACE TO SURFACE
CP-63-interlocking-1, CP-62-interlocking-1
** Interaction: CP-26-interlocking-1-interlocking-1
*Contact Pair, interaction=IntProp-1, type=SURFACE TO SURFACE
CP-65-interlocking-1, CP-64-interlocking-1
** Interaction: CP-27-interlocking-1-interlocking-1
*Contact Pair, interaction=IntProp-1, type=SURFACE TO SURFACE
CP-67-interlocking-1, CP-66-interlocking-1
** Interaction: CP-28-interlocking-1-interlocking-1
*Contact Pair, interaction=IntProp-1, type=SURFACE TO SURFACE
CP-69-interlocking-1, CP-68-interlocking-1
** Interaction: CP-29-interlocking-1-interlocking-1
*Contact Pair, interaction=IntProp-1, type=SURFACE TO SURFACE
CP-71-interlocking-1, CP-70-interlocking-1
** Interaction: CP-30-interlocking-1-interlocking-1
*Contact Pair, interaction=IntProp-1, type=SURFACE TO SURFACE
CP-73-interlocking-1, CP-72-interlocking-1
** ----------------------------------------------------------------
** 
** STEP: Step-1
** 
*Step, name=Step-1, nlgeom=NO
*Static
1., 1., 1e-05, 1.
** 
** BOUNDARY CONDITIONS
** 
** Name: BC-1 Type: Symmetry/Antisymmetry/Encastre
*Boundary
Set-1, ENCASTRE
** 
** LOADS
** 
** Name: Load-1   Type: Pressure
*Dsload
Surf-55, P, 100.
** 
** OUTPUT REQUESTS
** 
*Restart, write, frequency=0
** 
** FIELD OUTPUT: F-Output-1
** 
*Output, field, variable=PRESELECT
** 
** HISTORY OUTPUT: H-Output-1
** 
*Output, history, variable=PRESELECT
*End Step
