*Heading
** Job name: interlocking-1e Model name: interlocking-1
** Generated by: Abaqus/CAE 2023
*Preprint, echo=NO, model=NO, history=NO, contact=NO
**
** PARTS
**
*Part, name=frame
*Node
      1,   8.99800014,   8.99800014,   1.41400003
      2,   9.99800014,   7.99800062,           0.
      3,   9.99800014,   7.99800014,   1.41400003
      4,          11.,   6.99800014,   1.41400003
      5,   8.99800014,          11.,   1.41400003
      6,   9.99800014,   9.99800014,           0.
      7,   9.99800014,   9.99800014,   1.41400003
      8,   9.99800014,   3.99799991,   1.41400003
      9,   9.99800014,   3.99799967,           0.
     10,          11.,           3.,   1.41400003
     11,   6.99800062,           3.,   1.41400003
     12,   5.99800062,   3.99799967,           0.
     13,   5.99800014,   3.99799991,   1.41400003
     14,   4.99800014,   4.99800014,   1.41400003
     15,          11.,          -1.,   1.41400003
     16,   9.99800014,          -2.,           0.
     17,   9.99800014,          -2.,   1.41400003
     18,   9.99800014, 2.38419005e-07,           0.
     19,   9.99800014,           2.,           0.
     20,   9.99800014,   5.99800062,           0.
** ... 6948 like lines cut
*Element, type=R3D3
1, 2470, 2465, 2473
20, 2482,  161,  162
40, 2499, 2492, 2498
60, 2506,  195,  196
80, 2518,  205,  206
100, 2530,  219,  220
120, 2547, 2540, 2546
140, 2569, 2561, 2567
172, 2589, 2591, 2584
204, 2611, 2613, 2604
236, 2622, 2621, 2619
237, 2620,  277,  278
238, 2623, 2614, 2615
257, 2632,  287,  288
277, 2657, 2659, 2651
309, 2679, 2681, 2673
341, 2703, 2696, 2701
373, 2709, 2704, 2712
374, 2711, 2710, 2708
375, 2706, 2713, 2714
** ... 450 like lines cut
*Element, type=R3D4
 2, 2468, 2467,  149,  150
 3, 2468, 2466, 2474, 2467
 4,  155, 2466, 2465,  154
 5, 2470,  153,  154, 2465
 6,  152,    2,  153, 2470
 7, 2466, 2468, 2473, 2465
 8,  157, 2474,  156,    3
 9, 2467, 2474, 2475, 2472
10,  148, 2472, 2469,  147
11,  147, 2469,  160,    1
12, 2466,  155,  156, 2474
13,  157,  158, 2475, 2474
14, 2471, 2475,  158,  159
15, 2471, 2469, 2472, 2475
16, 2473, 2468,  150,  151
17,  159,  160, 2469, 2471
18,  151,  152, 2470, 2473
19, 2472,  148,  149, 2467
21, 2478, 2487, 2480, 2479
22, 2480, 2487, 2486, 2476
** ... 6713 like lines cut
*Node
   6969,   7.99800014,   7.99800014,   1.41400003
*Nset, nset=frame-RefPt_, internal
6969, 
*Elset, elset=frame, generate
    1,  7203,     1
*End Part
**  
*Part, name=interlocking
*Node
      1,   2.00000024, -1.6999993e-06,           0.
      2, 2.29999864e-06,  -1.99999964,           0.
      3, 2.29999864e-06, -1.6999993e-06,           0.
      4,   1.00000131,  -1.00000083,   1.41421211
      5, 2.29999864e-06, -1.6999993e-06,   1.41421211
      6,   1.00000131,  0.999997318,   1.41421211
      7,   2.00000024,  -1.99999964,           0.
      8,   2.00000024, -1.6999993e-06,   1.41421211
      9,   2.99999928,  -1.00000072,   1.41421211
     10,   2.00000024,  -1.99999964,   1.41421211
     11, -1.6999993e-06,  -2.00000024,           0.
     12,  -1.99999964, -2.29999864e-06,           0.
     13, -1.6999993e-06, -2.29999864e-06,           0.
     14,  -1.00000083,  -1.00000131,   1.41421211
     15, -1.6999993e-06, -2.29999864e-06,   1.41421211
     16,  0.999997318,  -1.00000131,   1.41421211
     17,  -1.99999964,  -2.00000024,           0.
     18, -1.6999993e-06,  -2.00000024,   1.41421211
     19,  -1.00000072,  -2.99999928,   1.41421211
     20,  -1.99999964,  -2.00000024,   1.41421211
** ... 14129 like lines cut
*Element, type=C3D10
   1, 1213, 1214, 1215, 1216, 2129, 2128, 2127, 2131, 2130, 2132
   2, 1213, 1217,  140, 1218, 2135, 2134, 2133, 2137, 2136, 2138
   3, 1213, 1214, 1219, 1215, 2129, 2140, 2139, 2127, 2128, 2141
   4, 1213, 1220, 1214, 1221, 2143, 2142, 2129, 2145, 2144, 2146
   5, 1222, 1223, 1224, 1225, 2149, 2148, 2147, 2151, 2150, 2152
   6, 1213, 1226, 1219, 1217, 2154, 2153, 2139, 2135, 2155, 2156
   7, 1227, 1228, 1229, 1230, 2159, 2158, 2157, 2161, 2160, 2162
   8, 1230, 1231, 1232, 1233, 2165, 2164, 2163, 2167, 2166, 2168
   9, 1230, 1234, 1235, 1227, 2171, 2170, 2169, 2161, 2172, 2173
  10, 1230, 1235, 1232, 1227, 2169, 2174, 2163, 2161, 2173, 2175
  11, 1230, 1236, 1232, 1231, 2177, 2176, 2163, 2165, 2178, 2164
  12, 1230, 1237, 1231, 1226, 2180, 2179, 2165, 2182, 2181, 2183
  13, 1230, 1238, 1237, 1215, 2185, 2184, 2180, 2187, 2186, 2188
  14, 1239, 1240, 1241, 1242, 2191, 2190, 2189, 2193, 2192, 2194
  15, 1239, 1234, 1231, 1226, 2197, 2196, 2195, 2199, 2198, 2183
  16, 1243, 1240, 1244, 1231, 2202, 2201, 2200, 2204, 2203, 2205
  17, 1240, 1244, 1231, 1239, 2201, 2205, 2203, 2191, 2206, 2195
  18, 1239, 1240, 1244, 1241, 2191, 2201, 2206, 2189, 2190, 2207
  19, 1245, 1246, 1222, 1247, 2210, 2209, 2208, 2212, 2211, 2213
  20, 1245, 1248, 1249, 1250, 2216, 2215, 2214, 2218, 2217, 2219
** ... 8677 like lines cut
*Nset, nset=Set-1, generate
     1,  14149,      1
*Elset, elset=Set-1, generate
    1,  8697,     1
** Section: Section-1
*Solid Section, elset=Set-1, material=high-strength
,
*End Part
**  
**
** ASSEMBLY
**
*Assembly, name=Assembly
**  
*Instance, name=frameName, part=frame
         -4.,          -4.,           0.
*End Instance
**  
*Instance, name=modelName, part=interlocking
*End Instance
**  
*Nset, nset=Set-1, instance=frameName, generate
    1,  6969,     1
*Elset, elset=Set-1, instance=frameName, generate
    1,  7203,     1
*Elset, elset=_CP-3-modelName_S3, internal, instance=modelName
 2615, 2736, 2739, 2918, 3004, 3187, 3199, 3212, 3437, 3577, 3629, 3631, 3683, 3700, 3704, 3718
 3754, 3759, 3760, 3761, 3763, 3773, 3776, 3782, 3783, 3788, 3807, 3835, 3845, 3859, 3860, 4008
 4047, 4054, 4069, 4072, 4076, 4080, 4091, 4099, 4100, 4106, 4118, 4132, 4144, 4145, 4169, 4175
 4177, 4237, 4277, 4306, 4309, 4324, 4327, 4332
*Elset, elset=_CP-3-modelName_S2, internal, instance=modelName
 3847,
*Elset, elset=_CP-3-modelName_S4, internal, instance=modelName
 4128,
*Surface, type=ELEMENT, name=CP-3-modelName
_CP-3-modelName_S3, S3
_CP-3-modelName_S2, S2
_CP-3-modelName_S4, S4
*Elset, elset=_CP-4-modelName_S3, internal, instance=modelName
 4674, 4933, 4937, 5025, 5035, 5100, 5157, 5179, 5194, 5266, 5391, 5588, 5594, 5628, 5647, 5709
 5801, 5868, 5886, 5892, 5964, 5968, 5971, 5974, 5975, 5985, 5990, 5993, 5995, 6001, 6002, 6005
 6018, 6035, 6044, 6061, 6064, 6259, 6276, 6278, 6279, 6283, 6291, 6305, 6309, 6318, 6321, 6322
 6328, 6334, 6340
*Elset, elset=_CP-4-modelName_S1, internal, instance=modelName
 5011, 5253
*Elset, elset=_CP-4-modelName_S4, internal, instance=modelName
 5032, 5044, 5516, 6037
*Elset, elset=_CP-4-modelName_S2, internal, instance=modelName
 6297,
*Surface, type=ELEMENT, name=CP-4-modelName
_CP-4-modelName_S3, S3
_CP-4-modelName_S1, S1
_CP-4-modelName_S4, S4
_CP-4-modelName_S2, S2
*Elset, elset=_CP-5-frameName_SNEG, internal, instance=frameName, generate
 475,  514,    1
*Surface, type=ELEMENT, name=CP-5-frameName
_CP-5-frameName_SNEG, SNEG
*Elset, elset=_CP-5-modelName_S1, internal, instance=modelName
 2476,
*Elset, elset=_CP-5-modelName_S3, internal, instance=modelName
 2593, 2848, 2880, 2936, 3189, 3307, 3517, 3593, 3696, 3756, 3766, 3768, 3769, 3777, 3785, 3791
 3803, 3814, 3817, 3857, 3939, 3959, 3962, 3963, 3972, 3975, 3976, 3977, 3980, 3981, 3982, 3986
 3990, 3995, 3997, 4004, 4006, 4013, 4023, 4032, 4035, 4038, 4043, 4056, 4065, 4124, 4318
*Elset, elset=_CP-5-modelName_S4, internal, instance=modelName
 4001,
*Surface, type=ELEMENT, name=CP-5-modelName
_CP-5-modelName_S1, S1
_CP-5-modelName_S3, S3
_CP-5-modelName_S4, S4
*Elset, elset=_CP-6-frameName_SNEG, internal, instance=frameName
 577, 578, 579, 580, 581, 582, 583, 584, 585, 586, 587, 588, 589, 590, 591, 592
 593, 594, 595, 596, 597, 639, 640, 641, 642, 643, 644, 645, 646, 647, 648, 649
 650, 651, 652, 653, 654, 655, 656, 657, 658, 659
*Surface, type=ELEMENT, name=CP-6-frameName
_CP-6-frameName_SNEG, SNEG
*Elset, elset=_CP-6-modelName_S3, internal, instance=modelName
 2302, 2718, 2830, 2876, 3127, 3316, 3331, 3332, 3436, 3465, 3536, 3581, 3582, 3878, 3889, 3893
 3905, 3917, 3918, 3928, 3937, 3938, 3951, 3984, 4002, 4015, 4130, 4236, 4295, 4347
*Elset, elset=_CP-6-modelName_S4, internal, instance=modelName
 2589, 2689, 2954, 3909, 3971, 4292
*Elset, elset=_CP-6-modelName_S2, internal, instance=modelName
 2844, 3277, 3816, 3881, 3885, 3901, 4021
*Elset, elset=_CP-6-modelName_S1, internal, instance=modelName
 3015, 3272, 3882, 3891, 3896, 4119
*Surface, type=ELEMENT, name=CP-6-modelName
_CP-6-modelName_S3, S3
_CP-6-modelName_S4, S4
_CP-6-modelName_S2, S2
_CP-6-modelName_S1, S1
*Elset, elset=_CP-7-frameName_SNEG, internal, instance=frameName, generate
 692,  722,    1
*Surface, type=ELEMENT, name=CP-7-frameName
_CP-7-frameName_SNEG, SNEG
*Elset, elset=_CP-7-modelName_S4, internal, instance=modelName
   54,  533,  719, 1710, 1715, 1761, 1803, 1824
*Elset, elset=_CP-7-modelName_S2, internal, instance=modelName
  160,  741, 1741, 1752
*Elset, elset=_CP-7-modelName_S3, internal, instance=modelName
  498,  540,  705,  720, 1025, 1109, 1111, 1225, 1315, 1329, 1358, 1416, 1424, 1473, 1475, 1556
 1688, 1746, 1748, 1771, 1781, 1786, 1788, 1796, 1799, 1800, 1846, 1905, 1948, 2015, 2122, 2157
*Elset, elset=_CP-7-modelName_S1, internal, instance=modelName
 1084, 1747, 1754, 2091, 2168
*Surface, type=ELEMENT, name=CP-7-modelName
_CP-7-modelName_S4, S4
_CP-7-modelName_S2, S2
_CP-7-modelName_S3, S3
_CP-7-modelName_S1, S1
*Elset, elset=_CP-8-frameName_SNEG, internal, instance=frameName, generate
 804,  835,    1
*Surface, type=ELEMENT, name=CP-8-frameName
_CP-8-frameName_SNEG, SNEG
*Elset, elset=_CP-8-modelName_S1, internal, instance=modelName
 2193,
*Elset, elset=_CP-8-modelName_S3, internal, instance=modelName
 2397, 2742, 2797, 2836, 3633, 3680, 3708, 3709, 3734, 3737, 3738, 3739, 3742, 3743, 3744, 3746
 3747, 3748, 3749, 3751, 3778, 3856, 3949, 3987, 3996, 4050
*Elset, elset=_CP-8-modelName_S2, internal, instance=modelName
 3201, 3762
*Surface, type=ELEMENT, name=CP-8-modelName
_CP-8-modelName_S1, S1
_CP-8-modelName_S3, S3
_CP-8-modelName_S2, S2
*Elset, elset=_CP-9-frameName_SNEG, internal, instance=frameName, generate
 1013,  1044,     1
*Surface, type=ELEMENT, name=CP-9-frameName
_CP-9-frameName_SNEG, SNEG
*Elset, elset=_CP-9-modelName_S2, internal, instance=modelName
 2397, 3732, 3744
*Elset, elset=_CP-9-modelName_S3, internal, instance=modelName
 2444, 2743, 3224, 3225, 3233, 3386, 3573, 3687, 3691, 3692, 3697, 3698, 3711, 3714, 3716, 3719
 3720, 3726, 3820, 3879, 3960, 3967, 4041
*Elset, elset=_CP-9-modelName_S1, internal, instance=modelName
 3201, 3738, 3762
*Surface, type=ELEMENT, name=CP-9-modelName
_CP-9-modelName_S2, S2
_CP-9-modelName_S3, S3
_CP-9-modelName_S1, S1
*Elset, elset=_CP-10-frameName_SNEG, internal, instance=frameName, generate
 1299,  1318,     1
*Surface, type=ELEMENT, name=CP-10-frameName
_CP-10-frameName_SNEG, SNEG
*Elset, elset=_CP-10-modelName_S3, internal, instance=modelName
 6627, 7092, 7572, 7573, 7835, 7929, 7995, 8036, 8045, 8046, 8065, 8067, 8069, 8078, 8085, 8094
 8098, 8115, 8137, 8166, 8253, 8330, 8362
*Elset, elset=_CP-10-modelName_S1, internal, instance=modelName
 8083, 8092, 8097, 8117, 8260
*Elset, elset=_CP-10-modelName_S2, internal, instance=modelName
 8086,
*Surface, type=ELEMENT, name=CP-10-modelName
_CP-10-modelName_S3, S3
_CP-10-modelName_S1, S1
_CP-10-modelName_S2, S2
*Elset, elset=_CP-11-frameName_SNEG, internal, instance=frameName, generate
 1516,  1534,     1
*Surface, type=ELEMENT, name=CP-11-frameName
_CP-11-frameName_SNEG, SNEG
*Elset, elset=_CP-11-modelName_S1, internal, instance=modelName
 6770,
*Elset, elset=_CP-11-modelName_S3, internal, instance=modelName
 8158, 8192, 8267, 8416, 8473, 8487, 8490, 8494, 8495, 8496, 8502, 8513, 8531, 8533, 8534, 8537
 8550, 8558, 8559, 8562, 8564, 8570, 8582, 8583, 8587, 8597, 8619, 8697
*Surface, type=ELEMENT, name=CP-11-modelName
_CP-11-modelName_S1, S1
_CP-11-modelName_S3, S3
*Elset, elset=_CP-12-frameName_SNEG, internal, instance=frameName, generate
 1535,  1553,     1
*Surface, type=ELEMENT, name=CP-12-frameName
_CP-12-frameName_SNEG, SNEG
*Elset, elset=_CP-12-modelName_S3, internal, instance=modelName
  561,  990,  993, 1328, 1601, 1624, 1740, 1856, 1945, 1994, 2031, 2033, 2034, 2040, 2041, 2051
 2057, 2067, 2074, 2076, 2106, 2131
*Elset, elset=_CP-12-modelName_S1, internal, instance=modelName
 992,
*Elset, elset=_CP-12-modelName_S4, internal, instance=modelName
 1886, 2105, 2133
*Elset, elset=_CP-12-modelName_S2, internal, instance=modelName
 1949, 1973, 2077
*Surface, type=ELEMENT, name=CP-12-modelName
_CP-12-modelName_S3, S3
_CP-12-modelName_S1, S1
_CP-12-modelName_S4, S4
_CP-12-modelName_S2, S2
*Elset, elset=_CP-13-frameName_SNEG, internal, instance=frameName, generate
 1535,  1553,     1
*Surface, type=ELEMENT, name=CP-13-frameName
_CP-13-frameName_SNEG, SNEG
*Elset, elset=_CP-13-modelName_S3, internal, instance=modelName
 6633, 7009, 7098, 7164, 7512, 7533, 7536, 7545, 7614, 7625, 7882, 8542, 8554, 8581, 8593, 8595
 8610, 8617, 8635, 8636, 8641, 8654, 8666, 8683
*Elset, elset=_CP-13-modelName_S1, internal, instance=modelName
 7163, 8534
*Elset, elset=_CP-13-modelName_S4, internal, instance=modelName
 8494, 8697
*Elset, elset=_CP-13-modelName_S2, internal, instance=modelName
 8495,
*Surface, type=ELEMENT, name=CP-13-modelName
_CP-13-modelName_S3, S3
_CP-13-modelName_S1, S1
_CP-13-modelName_S4, S4
_CP-13-modelName_S2, S2
*Elset, elset=_CP-14-frameName_SPOS, internal, instance=frameName, generate
 1535,  1553,     1
*Surface, type=ELEMENT, name=CP-14-frameName
_CP-14-frameName_SPOS, SPOS
*Elset, elset=_CP-14-modelName_S3, internal, instance=modelName
  579,  693,  694, 1039, 1376, 1410, 1462, 1520, 1529, 1530, 1550, 1552, 1563, 1566, 1579, 1586
 1587, 1614, 1632, 1815, 1854, 1871, 1928
*Elset, elset=_CP-14-modelName_S1, internal, instance=modelName
 1571, 1578, 1581, 1608, 1851
*Elset, elset=_CP-14-modelName_S2, internal, instance=modelName
 1572,
*Surface, type=ELEMENT, name=CP-14-modelName
_CP-14-modelName_S3, S3
_CP-14-modelName_S1, S1
_CP-14-modelName_S2, S2
*Elset, elset=_CP-15-frameName_SPOS, internal, instance=frameName, generate
 1697,  1716,     1
*Surface, type=ELEMENT, name=CP-15-frameName
_CP-15-frameName_SPOS, SPOS
*Elset, elset=_CP-15-modelName_S3, internal, instance=modelName
   80,  145,  400, 1496, 1513, 1876, 1886, 1894, 1913, 1923, 1933, 1934, 1947, 1949, 1955, 1973
 1979, 1986, 2003, 2021, 2022, 2026, 2035, 2037, 2073, 2079, 2080, 2088, 2133
*Surface, type=ELEMENT, name=CP-15-modelName
_CP-15-modelName_S3, S3
*Elset, elset=_CP-16-frameName_SNEG, internal, instance=frameName, generate
 1737,  1757,     1
*Surface, type=ELEMENT, name=CP-16-frameName
_CP-16-frameName_SNEG, SNEG
*Elset, elset=_CP-16-modelName_S3, internal, instance=modelName
 6619, 6639, 6662, 6781, 6943, 7028, 7051, 7086, 7088, 7097, 7269, 7338, 7437, 7550, 7561, 7585
 7901, 7949, 7981, 7983, 8009, 8033, 8049, 8053, 8057, 8101, 8111, 8113, 8125, 8136, 8141, 8150
 8154, 8157, 8159, 8164, 8168, 8190, 8197, 8214, 8216, 8217, 8371, 8413, 8419, 8420, 8432, 8445
 8450, 8452, 8461, 8472, 8483, 8516
*Elset, elset=_CP-16-modelName_S1, internal, instance=modelName
 8451, 8658
*Elset, elset=_CP-16-modelName_S4, internal, instance=modelName
 7936,
*Elset, elset=_CP-16-modelName_S2, internal, instance=modelName
 8163,
*Surface, type=ELEMENT, name=CP-16-modelName
_CP-16-modelName_S3, S3
_CP-16-modelName_S1, S1
_CP-16-modelName_S4, S4
_CP-16-modelName_S2, S2
*Elset, elset=_CP-17-frameName_SNEG, internal, instance=frameName, generate
 1737,  1757,     1
*Surface, type=ELEMENT, name=CP-17-frameName
_CP-17-frameName_SNEG, SNEG
*Elset, elset=_CP-17-modelName_S3, internal, instance=modelName
 4608, 5308, 5321, 5810, 5882, 5943, 5953, 5954, 5965, 5970, 5973, 5983, 5984, 5986, 6006, 6052
 6060, 6146, 6157, 6159, 6166, 6169, 6171, 6179, 6180, 6181, 6190, 6192, 6194, 6199, 6201, 6211
 6213, 6215, 6218, 6220, 6225, 6234, 6235, 6243, 6246, 6251, 6261, 6284, 6285, 6317, 6342, 6343
*Elset, elset=_CP-17-modelName_S1, internal, instance=modelName
 6240,
*Surface, type=ELEMENT, name=CP-17-modelName
_CP-17-modelName_S3, S3
_CP-17-modelName_S1, S1
*Elset, elset=_CP-18-frameName_SNEG, internal, instance=frameName
 1810, 1811, 1812, 1813, 1814, 1815, 1816, 1817, 1818, 1819, 1820, 1821, 1822, 1823, 1824, 1825
 1826, 1827, 1828, 1829, 1830, 1871, 1872, 1873, 1874, 1875, 1876, 1877, 1878, 1879, 1880, 1881
 1882, 1883, 1884, 1885, 1886, 1887, 1888, 1889, 1890, 1891
*Surface, type=ELEMENT, name=CP-18-frameName
_CP-18-frameName_SNEG, SNEG
*Elset, elset=_CP-18-modelName_S4, internal, instance=modelName
 4354, 6240, 6375, 6493, 6498, 6511
*Elset, elset=_CP-18-modelName_S3, internal, instance=modelName
 4387, 4485, 4540, 4584, 4908, 4919, 4947, 4959, 4961, 4989, 5259, 5265, 5330, 5448, 5456, 5519
 5595, 5637, 5664, 5695, 5736, 5739, 5758, 5796, 5802, 5903, 5951, 6008, 6011, 6028, 6029, 6033
 6036, 6038, 6042, 6043, 6045, 6055, 6063, 6066, 6067, 6069, 6070, 6071, 6073, 6075, 6080, 6081
 6083, 6085, 6086, 6088, 6089, 6095, 6098, 6099, 6103, 6109, 6110, 6112, 6114, 6115, 6119, 6120
 6128, 6133, 6148, 6150, 6153, 6154, 6161, 6167, 6168, 6170, 6178, 6182, 6183, 6185, 6197, 6198
 6202, 6206, 6214, 6230, 6232, 6233, 6237, 6238, 6239, 6242, 6252, 6265, 6266, 6267, 6270, 6271
 6290, 6339, 6365, 6390, 6504, 6506, 6510, 6513, 6515, 6519
*Elset, elset=_CP-18-modelName_S1, internal, instance=modelName
 5394, 6517
*Elset, elset=_CP-18-modelName_S2, internal, instance=modelName
 5103, 6268
*Surface, type=ELEMENT, name=CP-18-modelName
_CP-18-modelName_S4, S4
_CP-18-modelName_S3, S3
_CP-18-modelName_S2, S2
_CP-18-modelName_S1, S1
*Elset, elset=_CP-19-frameName_SNEG, internal, instance=frameName, generate
 2067,  2098,     1
*Surface, type=ELEMENT, name=CP-19-frameName
_CP-19-frameName_SNEG, SNEG
*Elset, elset=_CP-19-modelName_S3, internal, instance=modelName
 6540, 6548, 6596, 6641, 6750, 6786, 6833, 7103, 7124, 7197, 7308, 7474, 7478, 7568, 7734, 7969
 8062, 8093, 8130, 8132, 8153, 8176, 8187, 8191, 8195, 8198, 8201, 8204, 8210, 8223, 8226, 8233
 8241, 8250, 8257, 8261, 8264, 8265, 8268, 8269, 8271, 8272, 8274, 8278, 8281, 8282, 8284, 8287
 8288, 8296, 8304, 8306, 8309, 8321, 8326, 8327, 8329, 8334, 8343, 8346, 8349, 8350, 8352, 8353
 8354, 8358, 8366, 8373, 8374, 8377, 8378, 8384, 8385, 8386, 8390, 8393, 8395, 8396, 8399, 8401
 8410, 8412, 8417, 8418, 8424, 8425, 8438, 8440, 8441, 8454, 8492, 8515, 8544, 8548, 8574, 8602
 8628, 8637, 8645, 8661, 8663, 8665, 8667, 8676, 8679, 8686, 8691, 8692, 8694
*Elset, elset=_CP-19-modelName_S2, internal, instance=modelName
 7687, 8208, 8656
*Elset, elset=_CP-19-modelName_S4, internal, instance=modelName
 8232, 8563, 8598
*Elset, elset=_CP-19-modelName_S1, internal, instance=modelName
 8503,
*Surface, type=ELEMENT, name=CP-19-modelName
_CP-19-modelName_S3, S3
_CP-19-modelName_S2, S2
_CP-19-modelName_S4, S4
_CP-19-modelName_S1, S1
*Elset, elset=_CP-20-frameName_SPOS, internal, instance=frameName, generate
 4889,  7203,     1
*Surface, type=ELEMENT, name=CP-20-frameName
_CP-20-frameName_SPOS, SPOS
*Elset, elset=_CP-20-modelName_S3, internal, instance=modelName
   43,   51,   54,   73,   84,  160,  214,  363,  426,  527,  584,  647,  730,  741,  764,  856
 1118, 1121, 1137, 1180, 1203, 1217, 1338, 1362, 1367, 1388, 1417, 1426, 1449, 1522, 1583, 1592
 1604, 1611, 1629, 1636, 1638, 1640, 1642, 1645, 1677, 1681, 1683, 1689, 1705, 1708, 1719, 1723
 1725, 1726, 1728, 1732, 1736, 1738, 1744, 1745, 1751, 1760, 1761, 1762, 1763, 1764, 1765, 1770
 1776, 1778, 1783, 1784, 1785, 1792, 1798, 1801, 1802, 1808, 1811, 1818, 1824, 1826, 1827, 1834
 1842, 1845, 1857, 1859, 1860, 1862, 1869, 1882, 1883, 1884, 1889, 1891, 1892, 1898, 1901, 1903
 1909, 1919, 2038, 2063, 2094, 2098, 2142, 2150, 2163, 2168
*Elset, elset=_CP-20-modelName_S4, internal, instance=modelName
  203, 1450, 1812, 2000, 2102
*Elset, elset=_CP-20-modelName_S2, internal, instance=modelName
  309,  346, 1691
*Elset, elset=_CP-20-modelName_S1, internal, instance=modelName
 1709, 1715
*Surface, type=ELEMENT, name=CP-20-modelName
_CP-20-modelName_S3, S3
_CP-20-modelName_S4, S4
_CP-20-modelName_S2, S2
_CP-20-modelName_S1, S1
*Elset, elset=_CP-21-frameName_SPOS, internal, instance=frameName, generate
 4889,  7203,     1
*Surface, type=ELEMENT, name=CP-21-frameName
_CP-21-frameName_SPOS, SPOS
*Elset, elset=_CP-21-modelName_S3, internal, instance=modelName
  108,  183,  347,  434,  661,  844,  913,  986, 1081, 1131, 1196, 1227, 1229, 1320, 1322, 1441
 1447, 1452, 1502, 1700, 1735, 1797, 1809, 1812, 1817, 1830, 1929, 1936, 1956, 1990, 1997, 2011
 2013, 2027, 2056, 2070, 2081, 2085, 2086, 2089, 2108, 2112, 2118, 2127, 2159, 2162, 2172
*Elset, elset=_CP-21-modelName_S1, internal, instance=modelName
 1998,
*Elset, elset=_CP-21-modelName_S4, internal, instance=modelName
 2023,
*Surface, type=ELEMENT, name=CP-21-modelName
_CP-21-modelName_S3, S3
_CP-21-modelName_S1, S1
_CP-21-modelName_S4, S4
*Elset, elset=_CP-22-frameName_SPOS, internal, instance=frameName, generate
 4889,  7203,     1
*Surface, type=ELEMENT, name=CP-22-frameName
_CP-22-frameName_SPOS, SPOS
*Elset, elset=_CP-22-modelName_S4, internal, instance=modelName
 6786, 7738, 8093, 8353, 8599
*Elset, elset=_CP-22-modelName_S3, internal, instance=modelName
 6838, 7576, 7865, 7897, 7945, 7956, 8018, 8179, 8205, 8237, 8244, 8249, 8254, 8286, 8289, 8314
 8315, 8365, 8434, 8456, 8475, 8511, 8577, 8590, 8594, 8612, 8613, 8625, 8626, 8627, 8630, 8632
 8633, 8634
*Elset, elset=_CP-22-modelName_S1, internal, instance=modelName
 7766, 8226, 8425, 8596, 8604
*Elset, elset=_CP-22-modelName_S2, internal, instance=modelName
 8438, 8601, 8609, 8657, 8667
*Surface, type=ELEMENT, name=CP-22-modelName
_CP-22-modelName_S4, S4
_CP-22-modelName_S3, S3
_CP-22-modelName_S2, S2
_CP-22-modelName_S1, S1
*Elset, elset=_CP-23-modelName_S1, internal, instance=modelName
 6770,
*Elset, elset=_CP-23-modelName_S3, internal, instance=modelName
 8158, 8192, 8267, 8416, 8473, 8487, 8490, 8494, 8495, 8496, 8502, 8513, 8531, 8533, 8534, 8537
 8550, 8558, 8559, 8562, 8564, 8570, 8582, 8583, 8587, 8597, 8619, 8697
*Surface, type=ELEMENT, name=CP-23-modelName
_CP-23-modelName_S1, S1
_CP-23-modelName_S3, S3
*Elset, elset=_CP-24-modelName_S3, internal, instance=modelName
  561,  990,  993, 1328, 1601, 1624, 1740, 1856, 1945, 1994, 2031, 2033, 2034, 2040, 2041, 2051
 2057, 2067, 2074, 2076, 2106, 2131
*Elset, elset=_CP-24-modelName_S1, internal, instance=modelName
 992,
*Elset, elset=_CP-24-modelName_S4, internal, instance=modelName
 1886, 2105, 2133
*Elset, elset=_CP-24-modelName_S2, internal, instance=modelName
 1949, 1973, 2077
*Surface, type=ELEMENT, name=CP-24-modelName
_CP-24-modelName_S3, S3
_CP-24-modelName_S1, S1
_CP-24-modelName_S4, S4
_CP-24-modelName_S2, S2
*Elset, elset=_CP-25-modelName_S3, internal, instance=modelName
   80,  145,  400, 1496, 1513, 1876, 1886, 1894, 1913, 1923, 1933, 1934, 1947, 1949, 1955, 1973
 1979, 1986, 2003, 2021, 2022, 2026, 2035, 2037, 2073, 2079, 2080, 2088, 2133
*Surface, type=ELEMENT, name=CP-25-modelName
_CP-25-modelName_S3, S3
*Elset, elset=_CP-26-modelName_S3, internal, instance=modelName
 2525, 3254, 3388, 3463, 3468, 3525, 3563, 3838, 4178, 4239, 4244, 4249, 4252, 4259, 4265, 4267
 4271, 4283, 4285, 4286, 4290, 4311, 4319, 4330, 4340
*Elset, elset=_CP-26-modelName_S1, internal, instance=modelName
 2697, 4190
*Elset, elset=_CP-26-modelName_S4, internal, instance=modelName
 4157,
*Elset, elset=_CP-26-modelName_S2, internal, instance=modelName
 4170,
*Surface, type=ELEMENT, name=CP-26-modelName
_CP-26-modelName_S3, S3
_CP-26-modelName_S1, S1
_CP-26-modelName_S4, S4
_CP-26-modelName_S2, S2
*Elset, elset=_CP-27-modelName_S2, internal, instance=modelName
 2198, 2697
*Elset, elset=_CP-27-modelName_S3, internal, instance=modelName
 2249, 2403, 2409, 2459, 2463, 2480, 2637, 2648, 2790, 2793, 2863, 2908, 2982, 2987, 2992, 3063
 3089, 3093, 3249, 3251, 3276, 3290, 3309, 3371, 3375, 3408, 3620, 3622, 3644, 3666, 3797, 3833
 4012, 4030, 4042, 4137, 4140, 4141, 4155, 4172, 4187, 4196, 4197, 4204, 4210, 4242, 4250
*Surface, type=ELEMENT, name=CP-27-modelName
_CP-27-modelName_S2, S2
_CP-27-modelName_S3, S3
*Elset, elset=_CP-28-modelName_S3, internal, instance=modelName
   33,  134,  629,  636, 1125, 1154, 1293, 1306, 1335, 1372, 1562, 1564, 1637, 1653, 1710, 1747
 1774, 1803, 1810, 1874, 1976, 1984, 1988, 2004, 2006, 2043, 2091, 2092, 2124, 2130, 2138, 2141
 2146, 2148, 2153
*Elset, elset=_CP-28-modelName_S1, internal, instance=modelName
 1367, 1869, 2099
*Elset, elset=_CP-28-modelName_S4, internal, instance=modelName
 1728, 1773, 1784, 1792, 2103
*Elset, elset=_CP-28-modelName_S2, internal, instance=modelName
 1760, 1882, 1918, 1983, 2100, 2171
*Surface, type=ELEMENT, name=CP-28-modelName
_CP-28-modelName_S3, S3
_CP-28-modelName_S1, S1
_CP-28-modelName_S4, S4
_CP-28-modelName_S2, S2
*Elset, elset=_CP-29-modelName_S3, internal, instance=modelName
 2465, 2783, 3641, 4003, 4068, 4087, 4104, 4116, 4126, 4129, 4139, 4149, 4157, 4158, 4168, 4170
 4190, 4192, 4193, 4194, 4198, 4199, 4215, 4240, 4241, 4251, 4334
*Elset, elset=_CP-29-modelName_S4, internal, instance=modelName
 4107, 4339
*Surface, type=ELEMENT, name=CP-29-modelName
_CP-29-modelName_S3, S3
_CP-29-modelName_S4, S4
*Elset, elset=_CP-30-modelName_S3, internal, instance=modelName
 4677, 5372, 5569, 5641, 5654, 5821, 5871, 5961, 5962, 6172, 6347, 6400, 6401, 6402, 6407, 6422
 6439, 6440, 6445, 6450, 6477, 6478, 6483, 6501
*Elset, elset=_CP-30-modelName_S1, internal, instance=modelName
 4887, 6349
*Elset, elset=_CP-30-modelName_S4, internal, instance=modelName
 6255, 6509
*Elset, elset=_CP-30-modelName_S2, internal, instance=modelName
 6326,
*Surface, type=ELEMENT, name=CP-30-modelName
_CP-30-modelName_S3, S3
_CP-30-modelName_S1, S1
_CP-30-modelName_S4, S4
_CP-30-modelName_S2, S2
*Elset, elset=_CP-31-modelName_S3, internal, instance=modelName
 4381, 4535, 4606, 4676, 4689, 4891, 4915, 4916, 5054, 5114, 5167, 5168, 5268, 5317, 5549, 5553
 5563, 5576, 5756, 5791, 5800, 5848, 5963, 6050, 6065, 6188, 6204, 6247, 6363, 6364, 6380, 6383
 6393, 6411, 6414, 6420, 6421, 6435, 6438, 6444, 6454, 6470, 6475, 6518, 6520
*Elset, elset=_CP-31-modelName_S4, internal, instance=modelName
 4893, 6353, 6462
*Elset, elset=_CP-31-modelName_S2, internal, instance=modelName
 5798,
*Surface, type=ELEMENT, name=CP-31-modelName
_CP-31-modelName_S3, S3
_CP-31-modelName_S4, S4
_CP-31-modelName_S2, S2
*Elset, elset=_CP-32-modelName_S4, internal, instance=modelName
 2299, 3548, 3988, 4007, 4214, 4224
*Elset, elset=_CP-32-modelName_S3, internal, instance=modelName
 2582, 3075, 3280, 3543, 3545, 3549, 3586, 3605, 3662, 3703, 3729, 3794, 3816, 3890, 3891, 3957
 3958, 3998, 4049, 4119, 4153, 4164, 4238, 4246, 4258, 4279, 4280, 4284, 4287, 4289, 4291, 4292
 4299, 4313
*Elset, elset=_CP-32-modelName_S1, internal, instance=modelName
 3787, 3876, 4083, 4200
*Elset, elset=_CP-32-modelName_S2, internal, instance=modelName
 3790, 3868, 4081, 4096, 4227
*Surface, type=ELEMENT, name=CP-32-modelName
_CP-32-modelName_S4, S4
_CP-32-modelName_S3, S3
_CP-32-modelName_S2, S2
_CP-32-modelName_S1, S1
*Elset, elset=_CP-33-modelName_S4, internal, instance=modelName
 5642, 6499
*Elset, elset=_CP-33-modelName_S3, internal, instance=modelName
 5937, 6255, 6269, 6280, 6282, 6293, 6301, 6304, 6306, 6312, 6314, 6326, 6346, 6349, 6357, 6359
 6395, 6396, 6398, 6409, 6417, 6418, 6419, 6423, 6443, 6509
*Elset, elset=_CP-33-modelName_S2, internal, instance=modelName
 6372,
*Surface, type=ELEMENT, name=CP-33-modelName
_CP-33-modelName_S4, S4
_CP-33-modelName_S3, S3
_CP-33-modelName_S2, S2
*Elset, elset=_CP-34-modelName_S3, internal, instance=modelName
 6633, 7009, 7098, 7164, 7512, 7533, 7536, 7545, 7614, 7625, 7882, 8542, 8554, 8581, 8593, 8595
 8610, 8617, 8635, 8636, 8641, 8654, 8666, 8683
*Elset, elset=_CP-34-modelName_S1, internal, instance=modelName
 7163, 8534
*Elset, elset=_CP-34-modelName_S4, internal, instance=modelName
 8494, 8697
*Elset, elset=_CP-34-modelName_S2, internal, instance=modelName
 8495,
*Surface, type=ELEMENT, name=CP-34-modelName
_CP-34-modelName_S3, S3
_CP-34-modelName_S1, S1
_CP-34-modelName_S4, S4
_CP-34-modelName_S2, S2
*Elset, elset=_CP-35-modelName_S3, internal, instance=modelName
 6674, 6693, 6760, 7027, 7173, 7306, 7332, 7372, 7421, 7520, 7524, 7662, 7756, 7845, 7846, 7881
 7886, 7957, 7965, 7973, 7975, 7977, 8178, 8199, 8293, 8300, 8380, 8389, 8442, 8493, 8504, 8521
 8532, 8535, 8536, 8552, 8566, 8576, 8585, 8615, 8616, 8631, 8640, 8649, 8651, 8652, 8660
*Elset, elset=_CP-35-modelName_S2, internal, instance=modelName
 8489,
*Elset, elset=_CP-35-modelName_S1, internal, instance=modelName
 8560,
*Surface, type=ELEMENT, name=CP-35-modelName
_CP-35-modelName_S3, S3
_CP-35-modelName_S2, S2
_CP-35-modelName_S1, S1
*Elset, elset=_CP-36-modelName_S2, internal, instance=modelName
 4959, 6452, 6503, 6510
*Elset, elset=_CP-36-modelName_S1, internal, instance=modelName
 4999, 6033, 6038, 6239, 6436
*Elset, elset=_CP-36-modelName_S3, internal, instance=modelName
 5007, 5199, 5425, 5426, 5469, 5722, 5724, 5738, 5771, 5772, 5773, 5842, 5972, 6021, 6092, 6096
 6125, 6136, 6155, 6156, 6207, 6254, 6274, 6288, 6360, 6381, 6426, 6428, 6441, 6458, 6467, 6468
 6488, 6489, 6492
*Elset, elset=_CP-36-modelName_S4, internal, instance=modelName
 6144, 6154, 6161, 6447, 6448
*Surface, type=ELEMENT, name=CP-36-modelName
_CP-36-modelName_S2, S2
_CP-36-modelName_S1, S1
_CP-36-modelName_S4, S4
_CP-36-modelName_S3, S3
*Elset, elset=_Surf-53_S2, internal, instance=modelName
   80, 2041, 2088, 3388, 4186, 4199, 4252, 5654, 6346, 6423, 8531, 8570
*Elset, elset=_Surf-53_S3, internal, instance=modelName
  560,  566,  807, 1107, 1171, 1259, 1321, 1932, 1938, 1971, 2036, 2042, 2044, 2046, 2054, 2058
 2061, 2069, 2071, 2152, 2471, 2604, 2636, 3166, 3291, 3292, 3312, 3368, 3526, 3528, 3530, 3638
 3639, 4143, 4160, 4182, 4256, 4274, 4297, 4618, 4826, 4881, 5373, 5375, 5505, 5619, 5711, 5753
 5828, 5849, 6209, 6369, 6373, 6382, 6391, 6408, 6416, 6433, 6479, 6775, 6928, 7171, 7273, 7368
 7514, 7535, 7538, 7852, 7858, 8471, 8500, 8510, 8519, 8522, 8526, 8528, 8530, 8551, 8624
*Elset, elset=_Surf-53_S4, internal, instance=modelName
 1167, 2051, 3099, 4116, 4149, 4163, 4271, 5480, 6304, 6359, 6422, 7169, 8490, 8610
*Elset, elset=_Surf-53_S1, internal, instance=modelName
 1734, 1740, 1934, 2037, 4290, 6439, 6450, 7545, 8513, 8641, 8654
*Surface, type=ELEMENT, name=Surf-53
_Surf-53_S2, S2
_Surf-53_S3, S3
_Surf-53_S4, S4
_Surf-53_S1, S1
*Rigid Body, ref node=frameName.frame-RefPt_, elset=frameName.frame
*End Assembly
** 
** MATERIALS
** 
*Material, name=high-strength
*Elastic
 2e+12, 0.3
** 
** INTERACTION PROPERTIES
** 
*Surface Interaction, name=IntProp-1
1.,
*Friction
0.,
*Surface Behavior, pressure-overclosure=HARD
** 
** INTERACTIONS
** 
** Interaction: CP-3-frameName-modelName
*Contact Pair, interaction=IntProp-1, type=SURFACE TO SURFACE, adjust=0.0
CP-3-modelName, CP-5-frameName
** Interaction: CP-4-frameName-modelName
*Contact Pair, interaction=IntProp-1, type=SURFACE TO SURFACE
CP-4-modelName, CP-6-frameName
** Interaction: CP-5-frameName-modelName
*Contact Pair, interaction=IntProp-1, type=SURFACE TO SURFACE, adjust=0.0
CP-5-modelName, CP-7-frameName
** Interaction: CP-6-frameName-modelName
*Contact Pair, interaction=IntProp-1, type=SURFACE TO SURFACE, adjust=0.0
CP-6-modelName, CP-8-frameName
** Interaction: CP-7-frameName-modelName
*Contact Pair, interaction=IntProp-1, type=SURFACE TO SURFACE, adjust=0.0
CP-7-modelName, CP-9-frameName
** Interaction: CP-8-frameName-modelName
*Contact Pair, interaction=IntProp-1, type=SURFACE TO SURFACE
CP-8-modelName, CP-10-frameName
** Interaction: CP-9-frameName-modelName
*Contact Pair, interaction=IntProp-1, type=SURFACE TO SURFACE
CP-9-modelName, CP-11-frameName
** Interaction: CP-10-frameName-modelName
*Contact Pair, interaction=IntProp-1, type=SURFACE TO SURFACE
CP-10-modelName, CP-12-frameName
** Interaction: CP-11-frameName-modelName
*Contact Pair, interaction=IntProp-1, type=SURFACE TO SURFACE
CP-11-modelName, CP-13-frameName
** Interaction: CP-12-frameName-modelName
*Contact Pair, interaction=IntProp-1, type=SURFACE TO SURFACE
CP-12-modelName, CP-14-frameName
** Interaction: CP-13-frameName-modelName
*Contact Pair, interaction=IntProp-1, type=SURFACE TO SURFACE
CP-13-modelName, CP-15-frameName
** Interaction: CP-14-frameName-modelName
*Contact Pair, interaction=IntProp-1, type=SURFACE TO SURFACE
CP-14-modelName, CP-16-frameName
** Interaction: CP-15-frameName-modelName
*Contact Pair, interaction=IntProp-1, type=SURFACE TO SURFACE
CP-15-modelName, CP-17-frameName
** Interaction: CP-16-frameName-modelName
*Contact Pair, interaction=IntProp-1, type=SURFACE TO SURFACE, adjust=0.0
CP-16-modelName, CP-18-frameName
** Interaction: CP-17-frameName-modelName
*Contact Pair, interaction=IntProp-1, type=SURFACE TO SURFACE, adjust=0.0
CP-17-modelName, CP-19-frameName
** Interaction: CP-18-frameName-modelName
*Contact Pair, interaction=IntProp-1, type=SURFACE TO SURFACE
CP-18-modelName, CP-20-frameName
** Interaction: CP-19-frameName-modelName
*Contact Pair, interaction=IntProp-1, type=SURFACE TO SURFACE
CP-19-modelName, CP-21-frameName
** Interaction: CP-20-frameName-modelName
*Contact Pair, interaction=IntProp-1, type=SURFACE TO SURFACE
CP-20-modelName, CP-22-frameName
** Interaction: CP-21-modelName-modelName
*Contact Pair, interaction=IntProp-1, type=SURFACE TO SURFACE
CP-22-modelName, CP-21-modelName
** Interaction: CP-22-modelName-modelName
*Contact Pair, interaction=IntProp-1, type=SURFACE TO SURFACE
CP-24-modelName, CP-23-modelName
** Interaction: CP-23-modelName-modelName
*Contact Pair, interaction=IntProp-1, type=SURFACE TO SURFACE
CP-26-modelName, CP-25-modelName
** Interaction: CP-24-modelName-modelName
*Contact Pair, interaction=IntProp-1, type=SURFACE TO SURFACE
CP-28-modelName, CP-27-modelName
** Interaction: CP-25-modelName-modelName
*Contact Pair, interaction=IntProp-1, type=SURFACE TO SURFACE
CP-30-modelName, CP-29-modelName
** Interaction: CP-26-modelName-modelName
*Contact Pair, interaction=IntProp-1, type=SURFACE TO SURFACE
CP-32-modelName, CP-31-modelName
** Interaction: CP-27-modelName-modelName
*Contact Pair, interaction=IntProp-1, type=SURFACE TO SURFACE
CP-34-modelName, CP-33-modelName
** Interaction: CP-28-modelName-modelName
*Contact Pair, interaction=IntProp-1, type=SURFACE TO SURFACE
CP-36-modelName, CP-35-modelName
** ----------------------------------------------------------------
** 
** STEP: Step-1
** 
*Step, name=Step-1, nlgeom=NO
*Static
1., 1., 1e-05, 1.
** 
** BOUNDARY CONDITIONS
** 
** Name: BC-1 Type: Symmetry/Antisymmetry/Encastre
*Boundary
Set-1, ENCASTRE
** 
** LOADS
** 
** Name: Load-1   Type: Pressure
*Dsload
Surf-53, P, 100.
** 
** OUTPUT REQUESTS
** 
*Restart, write, frequency=0
** 
** FIELD OUTPUT: F-Output-1
** 
*Output, field, variable=PRESELECT
** 
** HISTORY OUTPUT: H-Output-1
** 
*Output, history, variable=PRESELECT
*End Step
