*Heading
** Job name: interlocking-1i Model name: interlocking-1
** Generated by: Abaqus/CAE 2023
*Preprint, echo=NO, model=NO, history=NO, contact=NO
**
** PARTS
**
*Part, name=frame
*Node
      1,   8.03999996,   8.03999996,           0.
      2,   6.04000044,   8.03999996,           0.
      3,   7.03999996,   7.03999996,   1.41421354
      4,   8.03999996,   8.03999996,   1.41421354
      5,   7.04000044,   9.03999996,   1.41421342
      6,   8.03999996,        10.04,           0.
      7,   6.03999996,        10.04,           0.
      8,   6.03999949,        10.04,   1.41421354
      9,   5.03999996,   9.03999996,   1.41421354
     10,   6.03999996,   8.03999996,   1.41421354
     11,   8.03999996,   6.03000021,           0.
     12,   6.04000044,   6.03000021,           0.
     13,   7.03999996,   5.03000021,   1.41421354
     14,   8.03999996,   6.03000021,   1.41421354
     15,   7.04000044,   7.02999973,   1.41421342
     16,   8.03999996,   8.02999973,           0.
     17,   6.03999996,   8.02999973,           0.
     18,   6.03999949,   8.02999973,   1.41421354
     19,   5.03999996,   7.03000021,   1.41421354
     20,   6.03999996,   6.03000021,   1.41421354
** ... 6213 like lines cut
*Element, type=R3D3
1, 2214, 2206, 2212
33, 2221,  183,  184
53, 2232,  182,  181
73, 2260, 2252, 2258
105, 2280, 2282, 2275
137, 2289,  225,  226
157, 2300,  224,  223
177, 2326, 2328, 2320
209, 2334, 2330, 2337
228, 2346,  259,  260
248, 2360, 2359, 2358
249, 2357,  271,  272
250, 2361, 2352, 2353
269, 2368,  266,  265
289, 2379, 2376, 2384
308, 2395, 2390, 2388
327, 2416, 2406, 2418
328, 2408, 2398, 2417
363, 2433, 2422, 2441
364, 2442, 2444, 2424
** ... 356 like lines cut
*Element, type=R3D4
 2,  175, 2201, 2199,  174
 3, 2200, 2209,  170,  171
 4,  169, 2194, 2195,  168
 5,  168, 2195, 2196,  167
 6,  167, 2196,  166,    2
 7, 2198, 2197, 2205, 2207
 8, 2205, 2195, 2194, 2209
 9, 2212, 2206, 2209, 2200
10, 2193, 2200,  171,  172
11,  173, 2193,  172,    3
12, 2210, 2213, 2211, 2202
13, 2198, 2210,  163,  164
14, 2207, 2213, 2210, 2198
15,  162, 2202, 2204,  161
16,  161, 2204,  178,    1
17, 2193,  173,  174, 2199
18, 2197, 2198,  164,  165
19,  169,  170, 2209, 2194
20, 2197, 2196, 2195, 2205
21,  165,  166, 2196, 2197
** ... 5993 like lines cut
*Node
   6234,   6.03999996,   8.03999996,   1.41421354
*Nset, nset=frame-RefPt_, internal
6234, 
*Elset, elset=frame, generate
    1,  6389,     1
*End Part
**  
*Part, name=interlocking
*Node
      1,   4.03000021,   6.03000021,           0.
      2,   6.03000021,   8.02999973,           0.
      3,   6.03000021,   6.03000021,           0.
      4,   5.03000021,   7.02999973,   1.41421342
      5,   6.03000021,   6.03000021,   1.41421354
      6,   5.03000021,   5.03000021,   1.41421354
      7,   4.03000021,   8.02999973,           0.
      8,   4.03000021,   6.03000021,   1.41421354
      9,   3.02999997,   7.03000021,   1.41421354
     10,   4.03000021,   8.02999973,   1.41421354
     11,   4.03000021,   4.01999998,           0.
     12,   6.03000021,   6.01999998,           0.
     13,   6.03000021,   4.01999998,           0.
     14,   5.03000021,   5.01999998,   1.41421342
     15,   6.03000021,   4.01999998,   1.41421354
     16,   5.03000021,   3.01999998,   1.41421354
     17,   4.03000021,   6.01999998,           0.
     18,   4.03000021,   4.01999998,   1.41421354
     19,   3.02999997,   5.01999998,   1.41421354
     20,   4.03000021,   6.01999998,   1.41421354
** ... 31678 like lines cut
*Element, type=C3D10
   1, 2728, 2729, 2730, 2731, 4771, 4770, 4769, 4773, 4772, 4774
   2, 2729, 2730, 2732, 2728, 4770, 4776, 4775, 4771, 4769, 4777
   3, 2733, 2729, 2730, 2732, 4779, 4770, 4778, 4780, 4775, 4776
   4, 2728, 2734, 2735, 2730, 4783, 4782, 4781, 4769, 4784, 4785
   5, 2728, 2736, 2737, 2735, 4788, 4787, 4786, 4781, 4789, 4790
   6, 2728, 2738, 2734, 2732, 4792, 4791, 4783, 4777, 4793, 4794
   7, 2728, 2732, 2736, 2738, 4777, 4795, 4788, 4792, 4793, 4796
   8, 2736, 2739, 2740, 2741, 4799, 4798, 4797, 4801, 4800, 4802
   9, 2736, 2732, 2739, 2738, 4795, 4803, 4799, 4796, 4793, 4804
  10, 2736, 2742, 2737, 2743, 4806, 4805, 4787, 4808, 4807, 4809
  11, 2736, 2742, 2744, 2745, 4806, 4811, 4810, 4813, 4812, 4814
  12, 2746, 2732, 2747, 2734, 4817, 4816, 4815, 4818, 4794, 4819
  13, 2746, 2748, 2749, 2750, 4822, 4821, 4820, 4824, 4823, 4825
  14, 2746, 2751, 2749, 2748, 4827, 4826, 4820, 4822, 4828, 4821
  15, 2751, 2752, 2753, 2748, 4831, 4830, 4829, 4828, 4832, 4833
  16, 2752, 2746, 2751, 2754, 4834, 4827, 4831, 4836, 4835, 4837
  17, 2747, 2734, 2755, 2756, 4819, 4839, 4838, 4841, 4840, 4842
  18, 2747, 2755, 2734, 2730, 4838, 4839, 4819, 4844, 4843, 4784
  19, 2757, 2758, 2759, 1262, 4847, 4846, 4845, 4849, 4848, 4850
  20, 1366, 2760, 2755, 2761, 4853, 4852, 4851, 4855, 4854, 4856
** ... 19442 like lines cut
*Nset, nset=Set-1, generate
     1,  31698,      1
*Elset, elset=Set-1, generate
     1,  19462,      1
** Section: Section-1
*Solid Section, elset=Set-1, material=high-strength
,
*End Part
**  
**
** ASSEMBLY
**
*Assembly, name=Assembly
**  
*Instance, name=f1, part=frame
*End Instance
**  
*Instance, name=interlocking-1, part=interlocking
*End Instance
**  
*Nset, nset=Set-1, instance=f1, generate
    1,  6234,     1
*Elset, elset=Set-1, instance=f1, generate
    1,  6389,     1
*Elset, elset=_CP-51-interlocking-1_S3, internal, instance=interlocking-1
 1036, 1131, 1293, 1358, 1361, 1377, 1499, 1584, 1611, 1672, 1679, 1702, 1706, 1709, 1715, 1732
 1776, 1784, 1787, 1915, 1977, 1978, 1987, 2065, 2068, 2077, 2083, 2098, 2100, 2115, 2127, 2138
 2144, 2146
*Elset, elset=_CP-51-interlocking-1_S4, internal, instance=interlocking-1
 1645, 1653, 1857, 2094, 2114
*Elset, elset=_CP-51-interlocking-1_S1, internal, instance=interlocking-1
 1737, 2070, 2150
*Elset, elset=_CP-51-interlocking-1_S2, internal, instance=interlocking-1
 1742, 1829, 1832, 1959, 2072, 2081, 2141
*Surface, type=ELEMENT, name=CP-51-interlocking-1
_CP-51-interlocking-1_S3, S3
_CP-51-interlocking-1_S4, S4
_CP-51-interlocking-1_S2, S2
_CP-51-interlocking-1_S1, S1
*Elset, elset=_CP-52-interlocking-1_S3, internal, instance=interlocking-1
 1305, 1572, 1674, 1739, 1745, 1753, 1841, 1862, 1864, 1871, 1883, 1890, 1905, 1911, 1912, 1925
 1943, 1945, 1951, 1996, 2017, 2047, 2050, 2052, 2058, 2104, 2116
*Elset, elset=_CP-52-interlocking-1_S2, internal, instance=interlocking-1
 1917,
*Elset, elset=_CP-52-interlocking-1_S1, internal, instance=interlocking-1
 2011,
*Surface, type=ELEMENT, name=CP-52-interlocking-1
_CP-52-interlocking-1_S3, S3
_CP-52-interlocking-1_S2, S2
_CP-52-interlocking-1_S1, S1
*Elset, elset=_CP-53-interlocking-1_S4, internal, instance=interlocking-1
  649, 2011
*Elset, elset=_CP-53-interlocking-1_S3, internal, instance=interlocking-1
  696, 1062, 1090, 1183, 1422, 1468, 1761, 1923, 1944, 2010, 2022, 2029, 2031, 2044, 2048, 2049
 2054, 2082, 2091, 2109, 2120, 2136, 2151
*Elset, elset=_CP-53-interlocking-1_S1, internal, instance=interlocking-1
 1739, 1996
*Elset, elset=_CP-53-interlocking-1_S2, internal, instance=interlocking-1
 1945, 2116
*Surface, type=ELEMENT, name=CP-53-interlocking-1
_CP-53-interlocking-1_S4, S4
_CP-53-interlocking-1_S3, S3
_CP-53-interlocking-1_S2, S2
_CP-53-interlocking-1_S1, S1
*Elset, elset=_CP-54-interlocking-1_S3, internal, instance=interlocking-1
 2668, 2804, 2828, 3487, 3532, 3539, 3541, 3581, 3838, 3844, 3904, 3912, 3915, 3920, 4061, 4146
 4180, 4184, 4186, 4195, 4199, 4203, 4208, 4220, 4229, 4230, 4234, 4235, 4237, 4246, 4248, 4249
 4251, 4255, 4275
*Elset, elset=_CP-54-interlocking-1_S1, internal, instance=interlocking-1
 2777, 3881, 3925, 4212, 4280
*Elset, elset=_CP-54-interlocking-1_S4, internal, instance=interlocking-1
 3447, 3851, 3957, 4172, 4211, 4213
*Elset, elset=_CP-54-interlocking-1_S2, internal, instance=interlocking-1
 3849, 4032, 4273
*Surface, type=ELEMENT, name=CP-54-interlocking-1
_CP-54-interlocking-1_S3, S3
_CP-54-interlocking-1_S1, S1
_CP-54-interlocking-1_S4, S4
_CP-54-interlocking-1_S2, S2
*Elset, elset=_CP-55-interlocking-1_S1, internal, instance=interlocking-1
 2454,
*Elset, elset=_CP-55-interlocking-1_S3, internal, instance=interlocking-1
 3775, 3799, 4062, 4069, 4080, 4088, 4091, 4109, 4112, 4114, 4120, 4122, 4134, 4144, 4154, 4156
 4163, 4165, 4166, 4167, 4171, 4176, 4204, 4205, 4207, 4209, 4219, 4250
*Surface, type=ELEMENT, name=CP-55-interlocking-1
_CP-55-interlocking-1_S1, S1
_CP-55-interlocking-1_S3, S3
*Elset, elset=_CP-56-interlocking-1_S3, internal, instance=interlocking-1
 2298, 2701, 3379, 3400, 3475, 3476, 3568, 3603, 3609, 3623, 3744, 4073, 4149, 4215, 4232, 4245
 4252, 4258, 4262, 4269, 4283, 4284, 4298, 4307
*Elset, elset=_CP-56-interlocking-1_S1, internal, instance=interlocking-1
 3363, 4156
*Elset, elset=_CP-56-interlocking-1_S4, internal, instance=interlocking-1
 4062,
*Elset, elset=_CP-56-interlocking-1_S2, internal, instance=interlocking-1
 4134, 4144
*Surface, type=ELEMENT, name=CP-56-interlocking-1
_CP-56-interlocking-1_S3, S3
_CP-56-interlocking-1_S1, S1
_CP-56-interlocking-1_S4, S4
_CP-56-interlocking-1_S2, S2
*Elset, elset=_CP-57-interlocking-1_S2, internal, instance=interlocking-1
 4676, 6071, 6086, 6208, 6209, 6394, 6449
*Elset, elset=_CP-57-interlocking-1_S3, internal, instance=interlocking-1
 4862, 5456, 5679, 5697, 5698, 5722, 5724, 5978, 6010, 6033, 6040, 6092, 6094, 6099, 6124, 6189
 6236, 6237, 6241, 6360, 6380, 6384, 6387, 6388, 6399, 6410, 6414, 6415, 6418, 6420, 6424, 6426
 6430, 6433, 6436
*Elset, elset=_CP-57-interlocking-1_S4, internal, instance=interlocking-1
 6014, 6104, 6122, 6396
*Elset, elset=_CP-57-interlocking-1_S1, internal, instance=interlocking-1
 6390, 6408, 6452
*Surface, type=ELEMENT, name=CP-57-interlocking-1
_CP-57-interlocking-1_S2, S2
_CP-57-interlocking-1_S3, S3
_CP-57-interlocking-1_S4, S4
_CP-57-interlocking-1_S1, S1
*Elset, elset=_CP-58-interlocking-1_S3, internal, instance=interlocking-1
 5701, 5933, 5980, 6120, 6224, 6233, 6240, 6253, 6255, 6266, 6287, 6309, 6313, 6314, 6317, 6325
 6337, 6359, 6362, 6363, 6365, 6366, 6370, 6377, 6378, 6456, 6465
*Elset, elset=_CP-58-interlocking-1_S4, internal, instance=interlocking-1
 6319,
*Elset, elset=_CP-58-interlocking-1_S2, internal, instance=interlocking-1
 6334,
*Surface, type=ELEMENT, name=CP-58-interlocking-1
_CP-58-interlocking-1_S3, S3
_CP-58-interlocking-1_S4, S4
_CP-58-interlocking-1_S2, S2
*Elset, elset=_CP-59-interlocking-1_S4, internal, instance=interlocking-1
 4835, 6224
*Elset, elset=_CP-59-interlocking-1_S3, internal, instance=interlocking-1
 5291, 5523, 5607, 5652, 5659, 5706, 5769, 5873, 6137, 6273, 6288, 6335, 6336, 6340, 6382, 6392
 6404, 6411, 6417, 6421, 6443, 6444, 6451, 6458, 6472
*Elset, elset=_CP-59-interlocking-1_S2, internal, instance=interlocking-1
 6287, 6317
*Surface, type=ELEMENT, name=CP-59-interlocking-1
_CP-59-interlocking-1_S4, S4
_CP-59-interlocking-1_S3, S3
_CP-59-interlocking-1_S2, S2
*Elset, elset=_CP-60-interlocking-1_S3, internal, instance=interlocking-1
  129,  337,  520,  630,  975, 1000, 1081, 1313, 1347, 1369, 1373, 1379, 1427, 1578, 1596, 1603
 1605, 1686, 1688, 1691, 1698, 1705, 1726, 1741, 1750, 1762, 1793, 1868, 1885, 1920, 1991
*Elset, elset=_CP-60-interlocking-1_S2, internal, instance=interlocking-1
  758, 1589, 1617, 1707, 1709, 1713, 2144
*Elset, elset=_CP-60-interlocking-1_S1, internal, instance=interlocking-1
 1029, 1365, 1706, 1718
*Elset, elset=_CP-60-interlocking-1_S4, internal, instance=interlocking-1
 1155, 1229, 1622, 1661, 1721, 1776, 1978
*Surface, type=ELEMENT, name=CP-60-interlocking-1
_CP-60-interlocking-1_S3, S3
_CP-60-interlocking-1_S2, S2
_CP-60-interlocking-1_S4, S4
_CP-60-interlocking-1_S1, S1
*Elset, elset=_CP-61-interlocking-1_S3, internal, instance=interlocking-1
  396,  908, 1032, 1053, 1181, 1477, 1490, 1493, 1495, 1501, 1502, 1503, 1512, 1520, 1539, 1540
 1552, 1560, 1567, 1570, 1619, 1808, 1849, 1888
*Elset, elset=_CP-61-interlocking-1_S4, internal, instance=interlocking-1
 1030, 1549, 1696, 1812
*Elset, elset=_CP-61-interlocking-1_S1, internal, instance=interlocking-1
 1569,
*Surface, type=ELEMENT, name=CP-61-interlocking-1
_CP-61-interlocking-1_S3, S3
_CP-61-interlocking-1_S4, S4
_CP-61-interlocking-1_S1, S1
*Elset, elset=_CP-62-interlocking-1_S3, internal, instance=interlocking-1
 4364, 4385, 4586, 4595, 4661, 4717, 4730, 4799, 4840, 4841, 5050, 5085, 5105, 5152, 5280, 5329
 5330, 5470, 5639, 5642, 5675, 5677, 5681, 5704, 5727, 5914, 5937, 5959, 6020, 6027, 6064, 6147
 6168, 6217, 6222, 6226, 6280, 6282, 6315, 6318, 6332, 6346, 6367, 6383, 6391, 6429, 6439, 6466
*Elset, elset=_CP-62-interlocking-1_S4, internal, instance=interlocking-1
 6292,
*Surface, type=ELEMENT, name=CP-62-interlocking-1
_CP-62-interlocking-1_S3, S3
_CP-62-interlocking-1_S4, S4
*Elset, elset=_CP-63-interlocking-1_S3, internal, instance=interlocking-1
 4323, 4349, 4373, 4392, 4474, 4646, 4784, 4830, 4884, 4887, 4968, 5068, 5090, 5115, 5118, 5382
 5410, 5483, 5504, 5592, 5770, 5819, 5838, 5848, 5906, 5932, 5935, 5941, 5947, 5954, 5957, 5963
 5992, 5998, 5999, 6003, 6081, 6166, 6198, 6204, 6212, 6247, 6251, 6254, 6261, 6269, 6270, 6272
 6278, 6283, 6320, 6326, 6406
*Elset, elset=_CP-63-interlocking-1_S1, internal, instance=interlocking-1
 4961,
*Elset, elset=_CP-63-interlocking-1_S4, internal, instance=interlocking-1
 4521, 5844, 5953, 6284
*Surface, type=ELEMENT, name=CP-63-interlocking-1
_CP-63-interlocking-1_S3, S3
_CP-63-interlocking-1_S1, S1
_CP-63-interlocking-1_S4, S4
*Elset, elset=_CP-64-interlocking-1_S3, internal, instance=interlocking-1
 11393, 11566, 11569, 11590, 11715, 11738, 11771, 12086, 12087, 12672, 12774, 12784, 12829, 12890, 12900, 12904
 12911, 12916, 12923, 12927, 12950
*Elset, elset=_CP-64-interlocking-1_S1, internal, instance=interlocking-1
 11953,
*Elset, elset=_CP-64-interlocking-1_S4, internal, instance=interlocking-1
 12771, 12782, 12799, 12810, 12895
*Elset, elset=_CP-64-interlocking-1_S2, internal, instance=interlocking-1
 12822, 12872
*Surface, type=ELEMENT, name=CP-64-interlocking-1
_CP-64-interlocking-1_S3, S3
_CP-64-interlocking-1_S1, S1
_CP-64-interlocking-1_S4, S4
_CP-64-interlocking-1_S2, S2
*Elset, elset=_CP-65-interlocking-1_S1, internal, instance=interlocking-1
 6689, 8228
*Elset, elset=_CP-65-interlocking-1_S4, internal, instance=interlocking-1
 6698, 7856, 8056, 8216, 8273, 8463, 8641
*Elset, elset=_CP-65-interlocking-1_S3, internal, instance=interlocking-1
 6771, 7005, 7019, 7036, 7092, 7114, 7404, 7510, 7587, 7610, 7719, 7853, 7859, 7865, 7872, 7921
 7946, 8194, 8202, 8226, 8231, 8239, 8245, 8255, 8270, 8286, 8288, 8305, 8333, 8352, 8603
*Elset, elset=_CP-65-interlocking-1_S2, internal, instance=interlocking-1
 7380, 7786, 7870, 8204, 8211, 8212, 8272, 8284, 8356
*Surface, type=ELEMENT, name=CP-65-interlocking-1
_CP-65-interlocking-1_S1, S1
_CP-65-interlocking-1_S4, S4
_CP-65-interlocking-1_S2, S2
_CP-65-interlocking-1_S3, S3
*Elset, elset=_CP-66-interlocking-1_S3, internal, instance=interlocking-1
  616,  646, 1031, 1058, 1319, 1399, 1466, 1482, 1535, 1538, 1542, 1543, 1549, 1550, 1553, 1554
 1556, 1557, 1559, 1563, 1579, 1581, 1696, 1812, 1826, 1853, 1895
*Elset, elset=_CP-66-interlocking-1_S1, internal, instance=interlocking-1
 1548,
*Elset, elset=_CP-66-interlocking-1_S2, internal, instance=interlocking-1
 1569,
*Surface, type=ELEMENT, name=CP-66-interlocking-1
_CP-66-interlocking-1_S3, S3
_CP-66-interlocking-1_S1, S1
_CP-66-interlocking-1_S2, S2
*Elset, elset=_CP-67-interlocking-1_S3, internal, instance=interlocking-1
 6660, 7061, 7493, 7686, 7694, 7978, 7983, 7988, 7990, 8010, 8011, 8018, 8023, 8026, 8028, 8043
 8048, 8110, 8173, 8264, 8290, 8376, 8403
*Elset, elset=_CP-67-interlocking-1_S1, internal, instance=interlocking-1
 7177, 8068
*Elset, elset=_CP-67-interlocking-1_S2, internal, instance=interlocking-1
 8006, 8049
*Elset, elset=_CP-67-interlocking-1_S4, internal, instance=interlocking-1
 8034, 8044
*Surface, type=ELEMENT, name=CP-67-interlocking-1
_CP-67-interlocking-1_S3, S3
_CP-67-interlocking-1_S1, S1
_CP-67-interlocking-1_S2, S2
_CP-67-interlocking-1_S4, S4
*Elset, elset=_CP-68-interlocking-1_S3, internal, instance=interlocking-1
 10861, 10874, 10985, 11052, 11106, 11214, 11231, 11345, 11389, 11400, 11427, 11462, 11476, 11481, 11533, 11534
 11708, 11790, 11840, 12014, 12082, 12103, 12236, 12239, 12287, 12330, 12462, 12658, 12661, 12667, 12678, 12705
 12734, 12739, 12763, 12767, 12797, 12813, 12817, 12821, 12824, 12826, 12875, 12936, 12948, 12951, 12955
*Elset, elset=_CP-68-interlocking-1_S2, internal, instance=interlocking-1
 11322,
*Elset, elset=_CP-68-interlocking-1_S1, internal, instance=interlocking-1
 12848,
*Surface, type=ELEMENT, name=CP-68-interlocking-1
_CP-68-interlocking-1_S3, S3
_CP-68-interlocking-1_S2, S2
_CP-68-interlocking-1_S1, S1
*Elset, elset=_CP-69-interlocking-1_S3, internal, instance=interlocking-1
 11097, 11217, 11327, 11477, 11723, 11726, 11820, 11821, 11878, 11918, 11927, 11962, 12071, 12077, 12172, 12209
 12221, 12238, 12304, 12317, 12328, 12346, 12375, 12389, 12402, 12409, 12412, 12422, 12436, 12439, 12445, 12471
 12473, 12474, 12477, 12479, 12557, 12677, 12680, 12683, 12684, 12685, 12691, 12703, 12720, 12724, 12726, 12752
 12770, 12876, 12954, 12965
*Elset, elset=_CP-69-interlocking-1_S4, internal, instance=interlocking-1
 10968, 11228, 11658, 12449
*Elset, elset=_CP-69-interlocking-1_S1, internal, instance=interlocking-1
 11801,
*Elset, elset=_CP-69-interlocking-1_S2, internal, instance=interlocking-1
 12285,
*Surface, type=ELEMENT, name=CP-69-interlocking-1
_CP-69-interlocking-1_S3, S3
_CP-69-interlocking-1_S4, S4
_CP-69-interlocking-1_S2, S2
_CP-69-interlocking-1_S1, S1
*Elset, elset=_CP-70-interlocking-1_S4, internal, instance=interlocking-1
 17710, 18499, 19291, 19457
*Elset, elset=_CP-70-interlocking-1_S3, internal, instance=interlocking-1
 17871, 17924, 18264, 18567, 18680, 18686, 18906, 19105, 19156, 19269, 19294, 19306, 19344, 19346, 19348, 19369
 19374, 19378, 19389, 19398, 19423, 19434
*Elset, elset=_CP-70-interlocking-1_S1, internal, instance=interlocking-1
 19104, 19285
*Elset, elset=_CP-70-interlocking-1_S2, internal, instance=interlocking-1
 19336,
*Surface, type=ELEMENT, name=CP-70-interlocking-1
_CP-70-interlocking-1_S4, S4
_CP-70-interlocking-1_S3, S3
_CP-70-interlocking-1_S2, S2
_CP-70-interlocking-1_S1, S1
*Elset, elset=_CP-71-interlocking-1_S3, internal, instance=interlocking-1
 13212, 13924, 13980, 14099, 14168, 14306, 14319, 14344, 14346, 14379, 14468, 14479, 14665, 14672, 14681, 14690
 14706, 14713, 14723, 14727, 14728, 14729, 14730, 14742, 14759, 14832, 14869, 14889, 14913, 15020, 15052
*Elset, elset=_CP-71-interlocking-1_S4, internal, instance=interlocking-1
 14082, 14374, 14580, 14696, 14782, 14807, 15088
*Elset, elset=_CP-71-interlocking-1_S1, internal, instance=interlocking-1
 14161, 14689, 14693, 14745
*Elset, elset=_CP-71-interlocking-1_S2, internal, instance=interlocking-1
 14653, 14658, 14686, 14691, 14877, 14907, 15122
*Surface, type=ELEMENT, name=CP-71-interlocking-1
_CP-71-interlocking-1_S3, S3
_CP-71-interlocking-1_S4, S4
_CP-71-interlocking-1_S2, S2
_CP-71-interlocking-1_S1, S1
*Elset, elset=_CP-72-interlocking-1_S3, internal, instance=interlocking-1
 7412, 7572, 7683, 7750, 7776, 7809, 7964, 7974, 7987, 8003, 8006, 8008, 8020, 8021, 8030, 8035
 8036, 8037, 8040, 8044, 8047, 8049, 8058, 8077, 8195, 8327, 8341
*Elset, elset=_CP-72-interlocking-1_S2, internal, instance=interlocking-1
 8059, 8068
*Surface, type=ELEMENT, name=CP-72-interlocking-1
_CP-72-interlocking-1_S3, S3
_CP-72-interlocking-1_S2, S2
*Elset, elset=_CP-73-interlocking-1_S3, internal, instance=interlocking-1
 13405, 13609, 13943, 14187, 14214, 14301, 14441, 14483, 14493, 14499, 14501, 14524, 14525, 14537, 14541, 14547
 14599, 14600, 14753, 14779, 14786, 14904, 15080, 15126
*Elset, elset=_CP-73-interlocking-1_S4, internal, instance=interlocking-1
 13666, 14549
*Elset, elset=_CP-73-interlocking-1_S2, internal, instance=interlocking-1
 14516, 14552
*Elset, elset=_CP-73-interlocking-1_S1, internal, instance=interlocking-1
 14563,
*Surface, type=ELEMENT, name=CP-73-interlocking-1
_CP-73-interlocking-1_S3, S3
_CP-73-interlocking-1_S4, S4
_CP-73-interlocking-1_S2, S2
_CP-73-interlocking-1_S1, S1
*Elset, elset=_CP-74-interlocking-1_S3, internal, instance=interlocking-1
 17324, 17385, 17543, 17562, 17577, 17805, 17810, 17867, 17921, 17922, 17945, 17994, 18021, 18213, 18236, 18261
 18363, 18436, 18494, 18504, 18579, 18580, 18693, 18732, 18737, 18771, 18772, 18773, 18790, 18876, 18920, 19023
 19124, 19134, 19212, 19219, 19241, 19242, 19275, 19282, 19292, 19352, 19388, 19400, 19409, 19417, 19424, 19454
*Elset, elset=_CP-74-interlocking-1_S1, internal, instance=interlocking-1
 19310,
*Surface, type=ELEMENT, name=CP-74-interlocking-1
_CP-74-interlocking-1_S3, S3
_CP-74-interlocking-1_S1, S1
*Elset, elset=_CP-75-interlocking-1_S3, internal, instance=interlocking-1
 17515, 17775, 17809, 17870, 18088, 18107, 18373, 18408, 18422, 18525, 18610, 18734, 18740, 18793, 18818, 18819
 18821, 18823, 18824, 18833, 18836, 18869, 18874, 18885, 18886, 18897, 18898, 18901, 18921, 18924, 18958, 18959
 18963, 18967, 18972, 19162, 19175, 19176, 19183, 19190, 19192, 19193, 19198, 19220, 19222, 19233, 19234, 19244
 19247, 19337, 19371, 19379, 19404, 19438
*Elset, elset=_CP-75-interlocking-1_S4, internal, instance=interlocking-1
 18688, 19429
*Elset, elset=_CP-75-interlocking-1_S2, internal, instance=interlocking-1
 18816,
*Elset, elset=_CP-75-interlocking-1_S1, internal, instance=interlocking-1
 18822,
*Surface, type=ELEMENT, name=CP-75-interlocking-1
_CP-75-interlocking-1_S3, S3
_CP-75-interlocking-1_S4, S4
_CP-75-interlocking-1_S2, S2
_CP-75-interlocking-1_S1, S1
*Elset, elset=_CP-76-interlocking-1_S3, internal, instance=interlocking-1
 13523, 13699, 14015, 14016, 14211, 14295, 14465, 14489, 14516, 14518, 14531, 14533, 14534, 14543, 14544, 14545
 14549, 14551, 14552, 14562, 14565, 14568, 14675, 14677, 14733, 14767, 14854
*Elset, elset=_CP-76-interlocking-1_S2, internal, instance=interlocking-1
 14563, 14818
*Surface, type=ELEMENT, name=CP-76-interlocking-1
_CP-76-interlocking-1_S3, S3
_CP-76-interlocking-1_S2, S2
*Elset, elset=_CP-77-interlocking-1_S3, internal, instance=interlocking-1
 15704, 15709, 15938, 16050, 16208, 16214, 16401, 16545, 16648, 16675, 16677, 16692, 16697, 16701, 16704, 16705
 16708, 16711, 16712, 16718, 16719, 16725, 16727, 16728, 16837, 16897, 16942
*Elset, elset=_CP-77-interlocking-1_S2, internal, instance=interlocking-1
 16707, 16724
*Surface, type=ELEMENT, name=CP-77-interlocking-1
_CP-77-interlocking-1_S3, S3
_CP-77-interlocking-1_S2, S2
*Elset, elset=_CP-78-interlocking-1_S3, internal, instance=interlocking-1
 13014, 13178, 13273, 13476, 13544, 13556, 13564, 13845, 13975, 14090, 14298, 14300, 14312, 14427, 14436, 14505
 14512, 14561, 14572, 14574, 14577, 14594, 14602, 14605, 14617, 14641, 14645, 14656, 14662, 14821, 14841, 14851
 14856, 14859, 14871, 14878, 14881, 14888, 14909, 14910, 14915, 14921, 14924, 14934, 14975, 14977, 15061, 15119
 15129,
*Elset, elset=_CP-78-interlocking-1_S4, internal, instance=interlocking-1
 13177, 13189, 14185, 14863, 15097
*Elset, elset=_CP-78-interlocking-1_S2, internal, instance=interlocking-1
 14314, 14582, 14592
*Elset, elset=_CP-78-interlocking-1_S1, internal, instance=interlocking-1
 13108,
*Surface, type=ELEMENT, name=CP-78-interlocking-1
_CP-78-interlocking-1_S3, S3
_CP-78-interlocking-1_S4, S4
_CP-78-interlocking-1_S2, S2
_CP-78-interlocking-1_S1, S1
*Elset, elset=_CP-79-interlocking-1_S3, internal, instance=interlocking-1
 13088, 13606, 13854, 13871, 14169, 14407, 14444, 14445, 14447, 14459, 14462, 14536, 14557, 14570, 14571, 14575
 14581, 14595, 14596, 14601, 14652, 14660, 14661, 14734, 14754, 14760, 14763, 14770, 14771, 14773, 14775, 14783
 14794, 14796, 14798, 14799, 14806, 14811, 14820, 14835, 14838, 14842, 14850, 14900, 14933, 15112
*Elset, elset=_CP-79-interlocking-1_S2, internal, instance=interlocking-1
 13548,
*Elset, elset=_CP-79-interlocking-1_S4, internal, instance=interlocking-1
 14858, 14859
*Surface, type=ELEMENT, name=CP-79-interlocking-1
_CP-79-interlocking-1_S3, S3
_CP-79-interlocking-1_S2, S2
_CP-79-interlocking-1_S4, S4
*Elset, elset=_CP-80-interlocking-1_S3, internal, instance=interlocking-1
 17865, 17937, 18632, 18633, 18653, 18659, 18779, 18794, 18829, 18846, 18851, 18854, 18855, 18859, 18860, 18861
 18862, 18863, 18864, 18866, 18868, 18870, 18875, 19061, 19121, 19436
*Elset, elset=_CP-80-interlocking-1_S1, internal, instance=interlocking-1
 17919,
*Elset, elset=_CP-80-interlocking-1_S2, internal, instance=interlocking-1
 18852, 18873
*Surface, type=ELEMENT, name=CP-80-interlocking-1
_CP-80-interlocking-1_S3, S3
_CP-80-interlocking-1_S1, S1
_CP-80-interlocking-1_S2, S2
*Elset, elset=_CP-81-interlocking-1_S3, internal, instance=interlocking-1
 15176, 15249, 15639, 15892, 15894, 16032, 16036, 16094, 16113, 16279, 16422, 16497, 16546, 16669, 16671, 16684
 16723, 16732, 16734, 16737, 16738, 16746, 16763, 16765, 16769, 16782, 16802, 16804, 16808, 16809, 16815, 16828
 16889, 16901, 16918, 16991, 17019, 17030, 17051, 17052, 17053, 17056, 17059, 17076, 17082, 17085, 17095, 17121
 17154, 17242, 17295, 17298, 17306
*Elset, elset=_CP-81-interlocking-1_S2, internal, instance=interlocking-1
 16206, 16667, 16783
*Elset, elset=_CP-81-interlocking-1_S4, internal, instance=interlocking-1
 16328, 17122
*Surface, type=ELEMENT, name=CP-81-interlocking-1
_CP-81-interlocking-1_S3, S3
_CP-81-interlocking-1_S2, S2
_CP-81-interlocking-1_S4, S4
*Elset, elset=_CP-82-interlocking-1_S3, internal, instance=interlocking-1
 15817, 15990, 16339, 16341, 16342, 16424, 16721, 16729, 16730, 16736, 16747, 16748, 16814, 16821, 16826, 16831
 16848, 16880, 16909, 16914, 16934, 16935, 16945, 16947, 16952, 16953, 16956, 16957, 16960, 16966, 16980, 16987
 17009, 17016, 17017, 17023, 17024, 17027, 17037, 17045, 17049, 17067, 17083, 17109, 17273, 17302, 17307
*Elset, elset=_CP-82-interlocking-1_S1, internal, instance=interlocking-1
 16666,
*Elset, elset=_CP-82-interlocking-1_S4, internal, instance=interlocking-1
 17010,
*Surface, type=ELEMENT, name=CP-82-interlocking-1
_CP-82-interlocking-1_S3, S3
_CP-82-interlocking-1_S1, S1
_CP-82-interlocking-1_S4, S4
*Elset, elset=_CP-83-interlocking-1_S3, internal, instance=interlocking-1
 17515, 17775, 17809, 17870, 18088, 18107, 18373, 18408, 18422, 18525, 18610, 18734, 18740, 18793, 18818, 18819
 18821, 18823, 18824, 18833, 18836, 18869, 18874, 18885, 18886, 18897, 18898, 18901, 18921, 18924, 18958, 18959
 18963, 18967, 18972, 19162, 19175, 19176, 19183, 19190, 19192, 19193, 19198, 19220, 19222, 19233, 19234, 19244
 19247, 19337, 19371, 19379, 19404, 19438
*Elset, elset=_CP-83-interlocking-1_S4, internal, instance=interlocking-1
 18688, 19429
*Elset, elset=_CP-83-interlocking-1_S2, internal, instance=interlocking-1
 18816,
*Elset, elset=_CP-83-interlocking-1_S1, internal, instance=interlocking-1
 18822,
*Surface, type=ELEMENT, name=CP-83-interlocking-1
_CP-83-interlocking-1_S3, S3
_CP-83-interlocking-1_S4, S4
_CP-83-interlocking-1_S2, S2
_CP-83-interlocking-1_S1, S1
*Elset, elset=_CP-84-interlocking-1_S3, internal, instance=interlocking-1
 17342, 18025, 18313, 18463, 18481, 18483, 18712, 18849, 18879, 18890, 18891, 18900, 18903, 18909, 18910, 18965
 18968, 19050, 19054, 19084, 19086, 19092, 19093, 19096, 19098, 19101, 19103, 19107, 19112, 19117, 19120, 19131
 19132, 19147, 19158, 19163, 19164, 19165, 19168, 19171, 19237, 19245, 19318, 19413, 19416, 19418
*Elset, elset=_CP-84-interlocking-1_S1, internal, instance=interlocking-1
 17899, 18527
*Elset, elset=_CP-84-interlocking-1_S4, internal, instance=interlocking-1
 18270,
*Surface, type=ELEMENT, name=CP-84-interlocking-1
_CP-84-interlocking-1_S3, S3
_CP-84-interlocking-1_S1, S1
_CP-84-interlocking-1_S4, S4
*Elset, elset=_CP-85-interlocking-1_S3, internal, instance=interlocking-1
   27,  238,  535,  551,  562,  563,  593,  635,  947,  994, 1016, 1085, 1089, 1153, 1311, 1346
 1410, 1420, 1421, 1447, 1517, 1616, 1703, 1754, 1777, 1778, 1789, 1820, 1856, 1886, 1929, 1962
 1986, 2001, 2023, 2026, 2033, 2037, 2045, 2056, 2057, 2088, 2095, 2128, 2131, 2149
*Elset, elset=_CP-85-interlocking-1_S4, internal, instance=interlocking-1
  806, 1667
*Elset, elset=_CP-85-interlocking-1_S2, internal, instance=interlocking-1
 1961,
*Surface, type=ELEMENT, name=CP-85-interlocking-1
_CP-85-interlocking-1_S3, S3
_CP-85-interlocking-1_S4, S4
_CP-85-interlocking-1_S2, S2
*Elset, elset=_CP-86-interlocking-1_S2, internal, instance=interlocking-1
 2267, 3039, 3784, 3845, 3852, 4180, 4199
*Elset, elset=_CP-86-interlocking-1_S3, internal, instance=interlocking-1
 2672, 3280, 3424, 3449, 3514, 3528, 3530, 3618, 3780, 3830, 3834, 3839, 3840, 3847, 3850, 3861
 3868, 3870, 3873, 3892, 3893, 3895, 3908, 3913, 3932, 3939, 4020, 4022, 4107, 4152, 4182
*Elset, elset=_CP-86-interlocking-1_S4, internal, instance=interlocking-1
 2833, 3467, 3858, 3864, 4025, 4027, 4249
*Elset, elset=_CP-86-interlocking-1_S1, internal, instance=interlocking-1
 3842, 3844, 3879, 3915
*Surface, type=ELEMENT, name=CP-86-interlocking-1
_CP-86-interlocking-1_S2, S2
_CP-86-interlocking-1_S3, S3
_CP-86-interlocking-1_S4, S4
_CP-86-interlocking-1_S1, S1
*Elset, elset=_CP-87-interlocking-1_S3, internal, instance=interlocking-1
   60,  121,  212,  226,  557,  609,  610, 1189, 1440, 1444, 1536, 1555, 1575, 1594, 1607, 1609
 1610, 1612, 1669, 1677, 1768, 1788, 1794, 1796, 1799, 1803, 1804, 1811, 1813, 1835, 1837, 1838
 1840, 1847, 1854, 1858, 1877, 1881, 1889, 1894, 1901, 1966, 1982, 1983, 2152
*Elset, elset=_CP-87-interlocking-1_S4, internal, instance=interlocking-1
  968, 1949
*Elset, elset=_CP-87-interlocking-1_S2, internal, instance=interlocking-1
 1585, 1815
*Surface, type=ELEMENT, name=CP-87-interlocking-1
_CP-87-interlocking-1_S3, S3
_CP-87-interlocking-1_S4, S4
_CP-87-interlocking-1_S2, S2
*Elset, elset=_CP-88-interlocking-1_S2, internal, instance=interlocking-1
 6485, 8033, 8314, 8317, 8567, 8626
*Elset, elset=_CP-88-interlocking-1_S3, internal, instance=interlocking-1
 6620, 6689, 7294, 7501, 7819, 7824, 7868, 8025, 8085, 8191, 8236, 8273, 8277, 8284, 8321, 8356
 8360, 8398, 8400, 8463, 8470, 8471, 8475, 8501, 8553, 8556, 8559, 8560, 8569, 8571, 8586, 8590
 8600,
*Elset, elset=_CP-88-interlocking-1_S1, internal, instance=interlocking-1
 7089, 8570, 8587, 8627
*Elset, elset=_CP-88-interlocking-1_S4, internal, instance=interlocking-1
 8124, 8138, 8246, 8444, 8454, 8572
*Surface, type=ELEMENT, name=CP-88-interlocking-1
_CP-88-interlocking-1_S2, S2
_CP-88-interlocking-1_S3, S3
_CP-88-interlocking-1_S4, S4
_CP-88-interlocking-1_S1, S1
*Elset, elset=_CP-89-interlocking-1_S3, internal, instance=interlocking-1
  128,  233,  526,  543,  641,  736,  855,  884, 1263, 1289, 1340, 1342, 1363, 1401, 1433, 1454
 1462, 1507, 1511, 1515, 1522, 1523, 1566, 1586, 1593, 1597, 1608, 1613, 1615, 1644, 1649, 1650
 1660, 1675, 1851, 1867, 1891, 1898, 1902, 1903, 1910, 1914, 1921, 1936, 1938, 1941, 1947, 1954
 1955, 1965, 1980, 1988, 2008, 2055
*Elset, elset=_CP-89-interlocking-1_S4, internal, instance=interlocking-1
  207,  290, 2124
*Elset, elset=_CP-89-interlocking-1_S2, internal, instance=interlocking-1
 1509,
*Surface, type=ELEMENT, name=CP-89-interlocking-1
_CP-89-interlocking-1_S3, S3
_CP-89-interlocking-1_S4, S4
_CP-89-interlocking-1_S2, S2
*Elset, elset=_CP-90-interlocking-1_S3, internal, instance=interlocking-1
 7902, 8159, 8235, 8244, 8289, 8346, 8348, 8373, 8388, 8396, 8397, 8404, 8410, 8422, 8428, 8433
 8434, 8457, 8480, 8486, 8491, 8517, 8547, 8549, 8552, 8578, 8601
*Elset, elset=_CP-90-interlocking-1_S1, internal, instance=interlocking-1
 8379,
*Elset, elset=_CP-90-interlocking-1_S2, internal, instance=interlocking-1
 8402,
*Surface, type=ELEMENT, name=CP-90-interlocking-1
_CP-90-interlocking-1_S3, S3
_CP-90-interlocking-1_S1, S1
_CP-90-interlocking-1_S2, S2
*Elset, elset=_CP-91-interlocking-1_S3, internal, instance=interlocking-1
  128,  233,  526,  543,  641,  736,  855,  884, 1263, 1289, 1340, 1342, 1363, 1401, 1433, 1454
 1462, 1507, 1511, 1515, 1522, 1523, 1566, 1586, 1593, 1597, 1608, 1613, 1615, 1644, 1649, 1650
 1660, 1675, 1851, 1867, 1891, 1898, 1902, 1903, 1910, 1914, 1921, 1936, 1938, 1941, 1947, 1954
 1955, 1965, 1980, 1988, 2008, 2055
*Elset, elset=_CP-91-interlocking-1_S4, internal, instance=interlocking-1
  207,  290, 2124
*Elset, elset=_CP-91-interlocking-1_S2, internal, instance=interlocking-1
 1509,
*Surface, type=ELEMENT, name=CP-91-interlocking-1
_CP-91-interlocking-1_S3, S3
_CP-91-interlocking-1_S4, S4
_CP-91-interlocking-1_S2, S2
*Elset, elset=_CP-92-interlocking-1_S3, internal, instance=interlocking-1
 2787, 3129, 3356, 3386, 3625, 3640, 3646, 3660, 3681, 3683, 3692, 3698, 3699, 3700, 3703, 3705
 3712, 3715, 3729, 3824, 3921, 3993
*Elset, elset=_CP-92-interlocking-1_S2, internal, instance=interlocking-1
 3389,
*Elset, elset=_CP-92-interlocking-1_S1, internal, instance=interlocking-1
 3686, 3702, 3706, 3716, 3731
*Elset, elset=_CP-92-interlocking-1_S4, internal, instance=interlocking-1
 3689,
*Surface, type=ELEMENT, name=CP-92-interlocking-1
_CP-92-interlocking-1_S3, S3
_CP-92-interlocking-1_S2, S2
_CP-92-interlocking-1_S4, S4
_CP-92-interlocking-1_S1, S1
*Elset, elset=_CP-93-interlocking-1_S3, internal, instance=interlocking-1
 4766, 5046, 5179, 5339, 5355, 5371, 5412, 5414, 5422, 5649, 5691, 5717, 5718, 5779, 5790, 5811
 5949, 5975, 6028, 6046, 6055, 6063, 6069, 6070, 6076, 6078, 6084, 6098, 6127, 6199, 6215, 6438
*Elset, elset=_CP-93-interlocking-1_S2, internal, instance=interlocking-1
 4832, 5004, 5986, 6034, 6042, 6210, 6410
*Elset, elset=_CP-93-interlocking-1_S4, internal, instance=interlocking-1
 4834, 4914, 5666, 6048, 6172
*Elset, elset=_CP-93-interlocking-1_S1, internal, instance=interlocking-1
 6033, 6037, 6052, 6094, 6430
*Surface, type=ELEMENT, name=CP-93-interlocking-1
_CP-93-interlocking-1_S3, S3
_CP-93-interlocking-1_S2, S2
_CP-93-interlocking-1_S4, S4
_CP-93-interlocking-1_S1, S1
*Elset, elset=_CP-94-interlocking-1_S3, internal, instance=interlocking-1
 2217, 2221, 2374, 2408, 2508, 2649, 2711, 2882, 2919, 2926, 2952, 3051, 3063, 3142, 3367, 3372
 3383, 3444, 3473, 3482, 3583, 3592, 3599, 3600, 3604, 3797, 3813, 3832, 3928, 3934, 3971, 3974
 3984, 4040, 4043, 4050, 4090, 4094, 4111, 4129, 4141, 4143, 4161, 4168, 4231, 4279, 4291, 4300
*Elset, elset=_CP-94-interlocking-1_S2, internal, instance=interlocking-1
 4181,
*Surface, type=ELEMENT, name=CP-94-interlocking-1
_CP-94-interlocking-1_S3, S3
_CP-94-interlocking-1_S2, S2
*Elset, elset=_CP-95-interlocking-1_S3, internal, instance=interlocking-1
 2391, 2786, 3154, 3190, 3222, 3526, 3552, 3642, 3655, 3678, 3682, 3696, 3701, 3702, 3706, 3709
 3710, 3713, 3716, 3717, 3720, 3725, 3732, 3736, 3761, 3770, 3898
*Elset, elset=_CP-95-interlocking-1_S4, internal, instance=interlocking-1
 3389,
*Elset, elset=_CP-95-interlocking-1_S2, internal, instance=interlocking-1
 3731,
*Surface, type=ELEMENT, name=CP-95-interlocking-1
_CP-95-interlocking-1_S3, S3
_CP-95-interlocking-1_S4, S4
_CP-95-interlocking-1_S2, S2
*Elset, elset=_CP-96-interlocking-1_S3, internal, instance=interlocking-1
 6570, 7044, 7086, 8150, 8167, 8485, 8490, 8494, 8513, 8518, 8528, 8533, 8538, 8546, 8564, 8575
 8576, 8585, 8605, 8637, 8639, 8642, 8644
*Elset, elset=_CP-96-interlocking-1_S1, internal, instance=interlocking-1
 7647, 8235, 8480
*Elset, elset=_CP-96-interlocking-1_S4, internal, instance=interlocking-1
 8379,
*Elset, elset=_CP-96-interlocking-1_S2, internal, instance=interlocking-1
 8433, 8601
*Surface, type=ELEMENT, name=CP-96-interlocking-1
_CP-96-interlocking-1_S3, S3
_CP-96-interlocking-1_S1, S1
_CP-96-interlocking-1_S4, S4
_CP-96-interlocking-1_S2, S2
*Elset, elset=_CP-97-interlocking-1_S3, internal, instance=interlocking-1
 2674, 2808, 2835, 2844, 3114, 3118, 3606, 3613, 3649, 3658, 3694, 3722, 3738, 3764, 3765, 3767
 3821, 3822, 3823, 3916, 3926, 3927, 3935, 3937, 3940, 3942, 3943, 3944, 3947, 3949, 3953, 3954
 3959, 3961, 3964, 3987, 4004, 4014, 4026, 4031, 4035, 4096, 4197, 4282, 4309, 4310
*Elset, elset=_CP-97-interlocking-1_S1, internal, instance=interlocking-1
 2680,
*Elset, elset=_CP-97-interlocking-1_S4, internal, instance=interlocking-1
 3441,
*Elset, elset=_CP-97-interlocking-1_S2, internal, instance=interlocking-1
 3747,
*Surface, type=ELEMENT, name=CP-97-interlocking-1
_CP-97-interlocking-1_S3, S3
_CP-97-interlocking-1_S1, S1
_CP-97-interlocking-1_S4, S4
_CP-97-interlocking-1_S2, S2
*Elset, elset=_CP-98-interlocking-1_S3, internal, instance=interlocking-1
  8706,  8724,  8810,  8828,  9018,  9493,  9697,  9869, 10001, 10005, 10009, 10066, 10212, 10382, 10458, 10461
 10463, 10505, 10507, 10534, 10537, 10619, 10719, 10724, 10727, 10762, 10763, 10764, 10765, 10769, 10773, 10776
 10778, 10798
*Elset, elset=_CP-98-interlocking-1_S4, internal, instance=interlocking-1
  9333, 10317, 10403, 10418, 10737, 10747
*Elset, elset=_CP-98-interlocking-1_S2, internal, instance=interlocking-1
 10205, 10392, 10394, 10504, 10745, 10750, 10801
*Elset, elset=_CP-98-interlocking-1_S1, internal, instance=interlocking-1
 10736, 10803
*Surface, type=ELEMENT, name=CP-98-interlocking-1
_CP-98-interlocking-1_S3, S3
_CP-98-interlocking-1_S4, S4
_CP-98-interlocking-1_S2, S2
_CP-98-interlocking-1_S1, S1
*Elset, elset=_CP-99-interlocking-1_S3, internal, instance=interlocking-1
 2233, 2265, 2465, 2610, 2675, 2725, 2727, 2909, 2914, 3203, 3206, 3225, 3238, 3375, 3422, 3460
 3556, 3561, 3595, 3635, 3656, 3671, 3673, 3677, 3749, 3751, 3752, 3759, 3774, 3776, 3789, 3802
 3811, 3820, 3983, 4007, 4019, 4024, 4034, 4036, 4037, 4052, 4067, 4068, 4074, 4078, 4083, 4086
 4100, 4106, 4118, 4192, 4200, 4247, 4259, 4301
*Elset, elset=_CP-99-interlocking-1_S4, internal, instance=interlocking-1
 2423, 4101
*Surface, type=ELEMENT, name=CP-99-interlocking-1
_CP-99-interlocking-1_S3, S3
_CP-99-interlocking-1_S4, S4
*Elset, elset=_CP-100-interlocking-1_S3, internal, instance=interlocking-1
 10260, 10265, 10357, 10416, 10516, 10522, 10530, 10550, 10576, 10581, 10587, 10589, 10591, 10599, 10601, 10607
 10631, 10643, 10654, 10657, 10662, 10709, 10711, 10712, 10717, 10756, 10777
*Elset, elset=_CP-100-interlocking-1_S2, internal, instance=interlocking-1
 10579,
*Elset, elset=_CP-100-interlocking-1_S4, internal, instance=interlocking-1
 10678,
*Surface, type=ELEMENT, name=CP-100-interlocking-1
_CP-100-interlocking-1_S3, S3
_CP-100-interlocking-1_S2, S2
_CP-100-interlocking-1_S4, S4
*Elset, elset=_CP-101-f1_SNEG, internal, instance=f1, generate
 574,  605,    1
*Surface, type=ELEMENT, name=CP-101-f1
_CP-101-f1_SNEG, SNEG
*Elset, elset=_CP-101-interlocking-1_S3, internal, instance=interlocking-1
 2233, 2265, 2465, 2610, 2675, 2725, 2727, 2909, 2914, 3203, 3206, 3225, 3238, 3375, 3422, 3460
 3556, 3561, 3595, 3635, 3656, 3671, 3673, 3677, 3749, 3751, 3752, 3759, 3774, 3776, 3789, 3802
 3811, 3820, 3983, 4007, 4019, 4024, 4034, 4036, 4037, 4052, 4067, 4068, 4074, 4078, 4083, 4086
 4100, 4106, 4118, 4192, 4200, 4247, 4259, 4301
*Elset, elset=_CP-101-interlocking-1_S4, internal, instance=interlocking-1
 2423, 4101
*Surface, type=ELEMENT, name=CP-101-interlocking-1
_CP-101-interlocking-1_S3, S3
_CP-101-interlocking-1_S4, S4
*Elset, elset=_CP-102-f1_SNEG, internal, instance=f1, generate
 606,  646,    1
*Surface, type=ELEMENT, name=CP-102-f1
_CP-102-f1_SNEG, SNEG
*Elset, elset=_CP-102-interlocking-1_S3, internal, instance=interlocking-1
 5394, 5515, 5710, 5816, 5817, 5828, 5834, 5852, 5856, 5857, 5858, 5865, 5866, 5875, 5878, 5880
 5887, 5889, 5909, 5917, 6100, 6105
*Elset, elset=_CP-102-interlocking-1_S1, internal, instance=interlocking-1
 5859, 5877, 5881, 5890, 5910
*Elset, elset=_CP-102-interlocking-1_S4, internal, instance=interlocking-1
 5862, 6148
*Surface, type=ELEMENT, name=CP-102-interlocking-1
_CP-102-interlocking-1_S3, S3
_CP-102-interlocking-1_S1, S1
_CP-102-interlocking-1_S4, S4
*Elset, elset=_CP-103-f1_SNEG, internal, instance=f1, generate
 954,  973,    1
*Surface, type=ELEMENT, name=CP-103-f1
_CP-103-f1_SNEG, SNEG
*Elset, elset=_CP-103-interlocking-1_S3, internal, instance=interlocking-1
 4894, 5662, 5663, 5686, 5687, 5822, 5825, 5849, 5854, 5868, 5872, 5876, 5877, 5881, 5884, 5885
 5890, 5900, 5908, 5911, 5926, 5939, 5942, 6067, 6134, 6164, 6274
*Elset, elset=_CP-103-interlocking-1_S2, internal, instance=interlocking-1
 5910,
*Elset, elset=_CP-103-interlocking-1_S1, internal, instance=interlocking-1
 6148,
*Surface, type=ELEMENT, name=CP-103-interlocking-1
_CP-103-interlocking-1_S3, S3
_CP-103-interlocking-1_S2, S2
_CP-103-interlocking-1_S1, S1
*Elset, elset=_CP-104-f1_SNEG, internal, instance=f1, generate
  974,  1004,     1
*Surface, type=ELEMENT, name=CP-104-f1
_CP-104-f1_SNEG, SNEG
*Elset, elset=_CP-104-interlocking-1_S3, internal, instance=interlocking-1
  9328,  9400,  9425,  9660, 10396, 10529, 10556, 10568, 10628, 10663, 10674, 10681, 10689, 10695, 10701, 10708
 10714, 10733, 10746, 10752, 10770, 10781, 10807, 10813, 10823
*Elset, elset=_CP-104-interlocking-1_S1, internal, instance=interlocking-1
 10357, 10607
*Elset, elset=_CP-104-interlocking-1_S2, internal, instance=interlocking-1
 10654,
*Elset, elset=_CP-104-interlocking-1_S4, internal, instance=interlocking-1
 10777,
*Surface, type=ELEMENT, name=CP-104-interlocking-1
_CP-104-interlocking-1_S3, S3
_CP-104-interlocking-1_S1, S1
_CP-104-interlocking-1_S2, S2
_CP-104-interlocking-1_S4, S4
*Elset, elset=_CP-105-f1_SNEG, internal, instance=f1, generate
 1005,  1045,     1
*Surface, type=ELEMENT, name=CP-105-f1
_CP-105-f1_SNEG, SNEG
*Elset, elset=_CP-105-interlocking-1_S3, internal, instance=interlocking-1
 4853, 4931, 4986, 5009, 5498, 5512, 5778, 5794, 5827, 5829, 5831, 5904, 5918, 5924, 5931, 5945
 5946, 5952, 5964, 6002, 6006, 6088, 6106, 6113, 6114, 6118, 6121, 6123, 6126, 6128, 6129, 6132
 6161, 6163, 6176, 6177, 6186, 6192, 6193, 6197, 6201, 6207, 6461, 6468, 6469
*Elset, elset=_CP-105-interlocking-1_S4, internal, instance=interlocking-1
 5617, 6194
*Elset, elset=_CP-105-interlocking-1_S2, internal, instance=interlocking-1
 6007,
*Elset, elset=_CP-105-interlocking-1_S1, internal, instance=interlocking-1
 6171,
*Surface, type=ELEMENT, name=CP-105-interlocking-1
_CP-105-interlocking-1_S3, S3
_CP-105-interlocking-1_S4, S4
_CP-105-interlocking-1_S2, S2
_CP-105-interlocking-1_S1, S1
*Elset, elset=_CP-106-f1_SNEG, internal, instance=f1, generate
 1353,  1372,     1
*Surface, type=ELEMENT, name=CP-106-f1
_CP-106-f1_SNEG, SNEG
*Elset, elset=_CP-106-interlocking-1_S3, internal, instance=interlocking-1
 11457, 11522, 11717, 12177, 12196, 12199, 12200, 12426, 12475, 12498, 12508, 12527, 12573, 12579, 12679, 12831
 12835, 12839, 12840, 12841, 12845, 12857, 12865, 12866, 12879, 12889, 12892, 12893, 12897, 12913, 12915, 12920
 12969, 12970
*Elset, elset=_CP-106-interlocking-1_S4, internal, instance=interlocking-1
 12161, 12497, 12556, 12633, 12912
*Elset, elset=_CP-106-interlocking-1_S2, internal, instance=interlocking-1
 12442, 12618, 12717, 12793, 12856, 12922
*Elset, elset=_CP-106-interlocking-1_S1, internal, instance=interlocking-1
 12715, 12847, 12874, 12925
*Surface, type=ELEMENT, name=CP-106-interlocking-1
_CP-106-interlocking-1_S3, S3
_CP-106-interlocking-1_S4, S4
_CP-106-interlocking-1_S2, S2
_CP-106-interlocking-1_S1, S1
*Elset, elset=_CP-107-f1_SNEG, internal, instance=f1, generate
 1373,  1403,     1
*Surface, type=ELEMENT, name=CP-107-f1
_CP-107-f1_SNEG, SNEG
*Elset, elset=_CP-107-interlocking-1_S3, internal, instance=interlocking-1
 4323, 4349, 4373, 4392, 4474, 4646, 4784, 4830, 4884, 4887, 4968, 5068, 5090, 5115, 5118, 5382
 5410, 5483, 5504, 5592, 5770, 5819, 5838, 5848, 5906, 5932, 5935, 5941, 5947, 5954, 5957, 5963
 5992, 5998, 5999, 6003, 6081, 6166, 6198, 6204, 6212, 6247, 6251, 6254, 6261, 6269, 6270, 6272
 6278, 6283, 6320, 6326, 6406
*Elset, elset=_CP-107-interlocking-1_S1, internal, instance=interlocking-1
 4961,
*Elset, elset=_CP-107-interlocking-1_S4, internal, instance=interlocking-1
 4521, 5844, 5953, 6284
*Surface, type=ELEMENT, name=CP-107-interlocking-1
_CP-107-interlocking-1_S3, S3
_CP-107-interlocking-1_S1, S1
_CP-107-interlocking-1_S4, S4
*Elset, elset=_CP-108-f1_SNEG, internal, instance=f1, generate
 1404,  1444,     1
*Surface, type=ELEMENT, name=CP-108-f1
_CP-108-f1_SNEG, SNEG
*Elset, elset=_CP-108-interlocking-1_S3, internal, instance=interlocking-1
 11960, 12291, 12707, 12732, 12738, 12740, 12757, 12761, 12771, 12776, 12782, 12785, 12799, 12814, 12816, 12819
 12820, 12822, 12823, 12825, 12827, 12846, 12877, 12882, 12899, 12949
*Elset, elset=_CP-108-interlocking-1_S4, internal, instance=interlocking-1
 12777,
*Elset, elset=_CP-108-interlocking-1_S2, internal, instance=interlocking-1
 12790,
*Elset, elset=_CP-108-interlocking-1_S1, internal, instance=interlocking-1
 12895,
*Surface, type=ELEMENT, name=CP-108-interlocking-1
_CP-108-interlocking-1_S3, S3
_CP-108-interlocking-1_S4, S4
_CP-108-interlocking-1_S2, S2
_CP-108-interlocking-1_S1, S1
*Elset, elset=_CP-109-f1_SNEG, internal, instance=f1, generate
 1753,  1772,     1
*Surface, type=ELEMENT, name=CP-109-f1
_CP-109-f1_SNEG, SNEG
*Elset, elset=_CP-109-interlocking-1_S3, internal, instance=interlocking-1
  8838,  9229,  9310,  9438,  9646,  9767,  9783,  9814,  9817,  9846,  9930, 10052, 10059, 10062, 10108, 10125
 10268, 10328, 10393, 10411, 10420, 10424, 10442, 10443, 10449, 10456, 10475, 10539, 10586, 10660, 10661
*Elset, elset=_CP-109-interlocking-1_S2, internal, instance=interlocking-1
  8921,  9018,  9587, 10212, 10395, 10400, 10414, 10820
*Elset, elset=_CP-109-interlocking-1_S1, internal, instance=interlocking-1
  9319, 10406, 10415, 10461, 10798, 10817
*Elset, elset=_CP-109-interlocking-1_S4, internal, instance=interlocking-1
  9440, 10307, 10731, 10776
*Surface, type=ELEMENT, name=CP-109-interlocking-1
_CP-109-interlocking-1_S3, S3
_CP-109-interlocking-1_S2, S2
_CP-109-interlocking-1_S4, S4
_CP-109-interlocking-1_S1, S1
*Elset, elset=_CP-110-f1_SNEG, internal, instance=f1, generate
 1995,  2026,     1
*Surface, type=ELEMENT, name=CP-110-f1
_CP-110-f1_SNEG, SNEG
*Elset, elset=_CP-110-interlocking-1_S4, internal, instance=interlocking-1
 6606, 6786, 8073
*Elset, elset=_CP-110-interlocking-1_S3, internal, instance=interlocking-1
 6772, 6795, 6798, 6822, 7041, 7093, 7106, 7126, 7135, 7233, 7346, 7415, 7448, 7522, 7561, 7690
 7707, 7772, 7773, 7818, 7903, 7904, 7909, 7951, 7953, 7954, 8197, 8221, 8262, 8274, 8344, 8419
 8439, 8476, 8527, 8534, 8541, 8542, 8550, 8551, 8565, 8629, 8640, 8645
*Elset, elset=_CP-110-interlocking-1_S1, internal, instance=interlocking-1
 6876,
*Elset, elset=_CP-110-interlocking-1_S2, internal, instance=interlocking-1
 8455,
*Surface, type=ELEMENT, name=CP-110-interlocking-1
_CP-110-interlocking-1_S4, S4
_CP-110-interlocking-1_S3, S3
_CP-110-interlocking-1_S2, S2
_CP-110-interlocking-1_S1, S1
*Elset, elset=_CP-111-f1_SNEG, internal, instance=f1, generate
 2202,  2242,     1
*Surface, type=ELEMENT, name=CP-111-f1
_CP-111-f1_SNEG, SNEG
*Elset, elset=_CP-111-interlocking-1_S3, internal, instance=interlocking-1
 7119, 7372, 7486, 7917, 7923, 7925, 7927, 7981, 8064, 8078, 8079, 8098, 8100, 8106, 8107, 8109
 8147, 8170, 8253, 8258, 8279, 8287, 8291, 8295, 8299, 8300, 8301, 8320, 8330, 8332, 8336, 8337
 8338, 8340, 8342, 8370, 8377, 8381, 8386, 8389, 8407, 8409, 8411, 8417, 8633
*Elset, elset=_CP-111-interlocking-1_S4, internal, instance=interlocking-1
 7984, 8091, 8378, 8385
*Surface, type=ELEMENT, name=CP-111-interlocking-1
_CP-111-interlocking-1_S3, S3
_CP-111-interlocking-1_S4, S4
*Elset, elset=_CP-112-f1_SNEG, internal, instance=f1, generate
 2498,  2529,     1
*Surface, type=ELEMENT, name=CP-112-f1
_CP-112-f1_SNEG, SNEG
*Elset, elset=_CP-112-interlocking-1_S3, internal, instance=interlocking-1
 13031, 13626, 13900, 14161, 14225, 14333, 14383, 14386, 14700, 14704, 14745, 14749, 14758, 14766, 14802, 14872
 14877, 14902, 14907, 14995, 15031, 15043, 15062, 15066, 15073, 15074, 15075, 15077, 15078, 15081, 15083, 15087
 15088, 15089, 15109
*Elset, elset=_CP-112-interlocking-1_S4, internal, instance=interlocking-1
 14382, 14673, 15048
*Elset, elset=_CP-112-interlocking-1_S1, internal, instance=interlocking-1
 14670, 14751, 15046, 15047, 15069, 15108
*Elset, elset=_CP-112-interlocking-1_S2, internal, instance=interlocking-1
 14857, 14860, 15004, 15053, 15101
*Surface, type=ELEMENT, name=CP-112-interlocking-1
_CP-112-interlocking-1_S3, S3
_CP-112-interlocking-1_S4, S4
_CP-112-interlocking-1_S2, S2
_CP-112-interlocking-1_S1, S1
*Elset, elset=_CP-113-f1_SNEG, internal, instance=f1, generate
 2530,  2549,     1
*Surface, type=ELEMENT, name=CP-113-f1
_CP-113-f1_SNEG, SNEG
*Elset, elset=_CP-113-interlocking-1_S3, internal, instance=interlocking-1
 6601, 6602, 6607, 7070, 7077, 7303, 7531, 7538, 7597, 7599, 7634, 7652, 7736, 7995, 8000, 8066
 8083, 8084, 8092, 8096, 8097, 8105, 8129, 8133, 8142, 8153, 8155, 8165, 8172, 8180, 8206, 8294
 8297, 8343, 8371, 8382, 8395, 8399, 8405, 8418, 8420, 8421, 8426, 8435, 8445, 8447, 8449, 8451
 8460, 8473, 8496, 8503, 8646, 8648
*Elset, elset=_CP-113-interlocking-1_S2, internal, instance=interlocking-1
 8070,
*Elset, elset=_CP-113-interlocking-1_S4, internal, instance=interlocking-1
 6673, 8448, 8523
*Surface, type=ELEMENT, name=CP-113-interlocking-1
_CP-113-interlocking-1_S3, S3
_CP-113-interlocking-1_S2, S2
_CP-113-interlocking-1_S4, S4
*Elset, elset=_CP-114-f1_SNEG, internal, instance=f1, generate
 2550,  2568,     1
*Surface, type=ELEMENT, name=CP-114-f1
_CP-114-f1_SNEG, SNEG
*Elset, elset=_CP-114-interlocking-1_S4, internal, instance=interlocking-1
 13341,
*Elset, elset=_CP-114-interlocking-1_S3, internal, instance=interlocking-1
 14422, 14625, 14630, 14780, 14797, 14887, 14895, 14914, 14917, 14918, 14938, 14950, 14952, 14953, 14960, 14963
 14976, 14979, 14981, 14989, 15017, 15023, 15028, 15037, 15055, 15110, 15117
*Elset, elset=_CP-114-interlocking-1_S2, internal, instance=interlocking-1
 14946,
*Surface, type=ELEMENT, name=CP-114-interlocking-1
_CP-114-interlocking-1_S4, S4
_CP-114-interlocking-1_S3, S3
_CP-114-interlocking-1_S2, S2
*Elset, elset=_CP-115-f1_SNEG, internal, instance=f1, generate
 2794,  2825,     1
*Surface, type=ELEMENT, name=CP-115-f1
_CP-115-f1_SNEG, SNEG
*Elset, elset=_CP-115-interlocking-1_S3, internal, instance=interlocking-1
 6601, 6602, 6607, 7070, 7077, 7303, 7531, 7538, 7597, 7599, 7634, 7652, 7736, 7995, 8000, 8066
 8083, 8084, 8092, 8096, 8097, 8105, 8129, 8133, 8142, 8153, 8155, 8165, 8172, 8180, 8206, 8294
 8297, 8343, 8371, 8382, 8395, 8399, 8405, 8418, 8420, 8421, 8426, 8435, 8445, 8447, 8449, 8451
 8460, 8473, 8496, 8503, 8646, 8648
*Elset, elset=_CP-115-interlocking-1_S2, internal, instance=interlocking-1
 8070,
*Elset, elset=_CP-115-interlocking-1_S4, internal, instance=interlocking-1
 6673, 8448, 8523
*Surface, type=ELEMENT, name=CP-115-interlocking-1
_CP-115-interlocking-1_S3, S3
_CP-115-interlocking-1_S2, S2
_CP-115-interlocking-1_S4, S4
*Elset, elset=_CP-116-f1_SNEG, internal, instance=f1, generate
 2826,  2845,     1
*Surface, type=ELEMENT, name=CP-116-f1
_CP-116-f1_SNEG, SNEG
*Elset, elset=_CP-116-interlocking-1_S4, internal, instance=interlocking-1
  9195, 10163
*Elset, elset=_CP-116-interlocking-1_S3, internal, instance=interlocking-1
  9199,  9207,  9226,  9309,  9636, 10109, 10110, 10156, 10157, 10161, 10166, 10182, 10183, 10190, 10199, 10213
 10216, 10220, 10274, 10366, 10468, 10484, 10789
*Elset, elset=_CP-116-interlocking-1_S1, internal, instance=interlocking-1
 10229, 10266
*Elset, elset=_CP-116-interlocking-1_S2, internal, instance=interlocking-1
 10241, 10244
*Surface, type=ELEMENT, name=CP-116-interlocking-1
_CP-116-interlocking-1_S4, S4
_CP-116-interlocking-1_S3, S3
_CP-116-interlocking-1_S2, S2
_CP-116-interlocking-1_S1, S1
*Elset, elset=_CP-117-f1_SNEG, internal, instance=f1, generate
 3003,  3041,     1
*Surface, type=ELEMENT, name=CP-117-f1
_CP-117-f1_SNEG, SNEG
*Elset, elset=_CP-117-interlocking-1_S4, internal, instance=interlocking-1
 11415, 12226, 12515, 12524, 12573
*Elset, elset=_CP-117-interlocking-1_S3, internal, instance=interlocking-1
 11418, 11902, 11911, 11916, 12015, 12163, 12167, 12192, 12193, 12194, 12242, 12245, 12247, 12489, 12496, 12511
 12519, 12521, 12532, 12535, 12543, 12565, 12619, 12630, 12645, 12655, 12696, 12854, 12917, 12941
*Elset, elset=_CP-117-interlocking-1_S1, internal, instance=interlocking-1
 11421, 12415, 12508, 12522, 12536, 12913
*Elset, elset=_CP-117-interlocking-1_S2, internal, instance=interlocking-1
 12500, 12502, 12504, 12509, 12518, 12584, 12588, 12879
*Surface, type=ELEMENT, name=CP-117-interlocking-1
_CP-117-interlocking-1_S4, S4
_CP-117-interlocking-1_S3, S3
_CP-117-interlocking-1_S2, S2
_CP-117-interlocking-1_S1, S1
*Elset, elset=_CP-118-f1_SNEG, internal, instance=f1, generate
 3299,  3330,     1
*Surface, type=ELEMENT, name=CP-118-f1
_CP-118-f1_SNEG, SNEG
*Elset, elset=_CP-118-interlocking-1_S3, internal, instance=interlocking-1
  8872,  8940,  8953,  9108,  9266,  9422,  9424,  9450,  9479,  9555,  9690,  9710,  9753,  9852,  9860,  9908
 10013, 10022, 10023, 10050, 10082, 10097, 10105, 10120, 10201, 10228, 10353, 10462, 10477, 10562, 10620, 10627
 10664, 10668, 10675, 10683, 10685, 10694, 10699, 10700, 10704, 10705, 10726, 10728, 10730, 10758, 10794
*Elset, elset=_CP-118-interlocking-1_S1, internal, instance=interlocking-1
 10622,
*Elset, elset=_CP-118-interlocking-1_S2, internal, instance=interlocking-1
 10650,
*Surface, type=ELEMENT, name=CP-118-interlocking-1
_CP-118-interlocking-1_S3, S3
_CP-118-interlocking-1_S1, S1
_CP-118-interlocking-1_S2, S2
*Elset, elset=_CP-119-f1_SNEG, internal, instance=f1, generate
 3331,  3350,     1
*Surface, type=ELEMENT, name=CP-119-f1
_CP-119-f1_SNEG, SNEG
*Elset, elset=_CP-119-interlocking-1_S3, internal, instance=interlocking-1
  8788,  9122,  9225,  9296,  9736, 10153, 10193, 10229, 10230, 10237, 10241, 10242, 10244, 10245, 10248, 10256
 10262, 10339, 10385, 10447, 10480, 10496, 10499, 10544, 10566
*Elset, elset=_CP-119-interlocking-1_S2, internal, instance=interlocking-1
 10215, 10266, 10330, 10571
*Surface, type=ELEMENT, name=CP-119-interlocking-1
_CP-119-interlocking-1_S3, S3
_CP-119-interlocking-1_S2, S2
*Elset, elset=_CP-120-f1_SNEG, internal, instance=f1, generate
 3351,  3369,     1
*Surface, type=ELEMENT, name=CP-120-f1
_CP-120-f1_SNEG, SNEG
*Elset, elset=_CP-120-interlocking-1_S3, internal, instance=interlocking-1
 13065, 13645, 13733, 14102, 14233, 14264, 14292, 14310, 14323, 14345, 14873, 14930, 14940, 14997, 15000, 15041
 15056, 15060, 15067, 15072, 15079, 15103, 15116, 15125, 15134
*Elset, elset=_CP-120-interlocking-1_S4, internal, instance=interlocking-1
 14938, 14953
*Elset, elset=_CP-120-interlocking-1_S1, internal, instance=interlocking-1
 14981,
*Elset, elset=_CP-120-interlocking-1_S2, internal, instance=interlocking-1
 15110,
*Surface, type=ELEMENT, name=CP-120-interlocking-1
_CP-120-interlocking-1_S3, S3
_CP-120-interlocking-1_S4, S4
_CP-120-interlocking-1_S2, S2
_CP-120-interlocking-1_S1, S1
*Elset, elset=_CP-121-f1_SNEG, internal, instance=f1, generate
 3594,  3625,     1
*Surface, type=ELEMENT, name=CP-121-f1
_CP-121-f1_SNEG, SNEG
*Elset, elset=_CP-121-interlocking-1_S3, internal, instance=interlocking-1
  8761,  9842,  9964, 10085, 10093, 10112, 10139, 10257, 10271, 10272, 10285, 10294, 10297, 10301, 10302, 10450
 10459, 10464, 10466, 10469, 10478, 10481, 10482, 10487, 10489, 10492, 10494, 10497, 10498, 10500, 10501, 10510
 10514, 10518, 10528, 10551, 10553, 10555, 10563, 10580, 10582, 10583, 10594, 10636, 10649
*Elset, elset=_CP-121-interlocking-1_S4, internal, instance=interlocking-1
 9269, 9620
*Elset, elset=_CP-121-interlocking-1_S2, internal, instance=interlocking-1
 9318,
*Elset, elset=_CP-121-interlocking-1_S1, internal, instance=interlocking-1
 10074,
*Surface, type=ELEMENT, name=CP-121-interlocking-1
_CP-121-interlocking-1_S3, S3
_CP-121-interlocking-1_S4, S4
_CP-121-interlocking-1_S2, S2
_CP-121-interlocking-1_S1, S1
*Elset, elset=_CP-122-f1_SNEG, internal, instance=f1, generate
 3626,  3645,     1
*Surface, type=ELEMENT, name=CP-122-f1
_CP-122-f1_SNEG, SNEG
*Elset, elset=_CP-122-interlocking-1_S3, internal, instance=interlocking-1
 15753, 16072, 16357, 16358, 16516, 16562, 16592, 16610, 16858, 16859, 16884, 16908, 16911, 16936, 16937, 17133
 17172, 17178, 17183, 17195, 17197, 17198, 17200, 17203, 17212, 17224, 17227, 17230, 17247, 17251, 17259, 17265
 17266,
*Elset, elset=_CP-122-interlocking-1_S1, internal, instance=interlocking-1
 16122, 17205, 17209, 17272
*Elset, elset=_CP-122-interlocking-1_S2, internal, instance=interlocking-1
 16753, 16923, 16970, 17066, 17186, 17210, 17263
*Elset, elset=_CP-122-interlocking-1_S4, internal, instance=interlocking-1
 16866, 16986, 17001, 17159, 17215
*Surface, type=ELEMENT, name=CP-122-interlocking-1
_CP-122-interlocking-1_S3, S3
_CP-122-interlocking-1_S1, S1
_CP-122-interlocking-1_S2, S2
_CP-122-interlocking-1_S4, S4
*Elset, elset=_CP-123-f1_SNEG, internal, instance=f1, generate
 3802,  3843,     1
*Surface, type=ELEMENT, name=CP-123-f1
_CP-123-f1_SNEG, SNEG
*Elset, elset=_CP-123-interlocking-1_S3, internal, instance=interlocking-1
  8731,  8817,  8928,  9371,  9391,  9457,  9501,  9878,  9889,  9992, 10090, 10185, 10188, 10207, 10249, 10259
 10279, 10280, 10282, 10283, 10284, 10293, 10299, 10310, 10315, 10319, 10331, 10354, 10356, 10359, 10363, 10369
 10371, 10509, 10560, 10561, 10567, 10570, 10572, 10573, 10577, 10592, 10596, 10602, 10604, 10615, 10617, 10624
 10630, 10635, 10637, 10686, 10691, 10698, 10818
*Elset, elset=_CP-123-interlocking-1_S4, internal, instance=interlocking-1
 10089,
*Elset, elset=_CP-123-interlocking-1_S2, internal, instance=interlocking-1
  9928, 10493
*Surface, type=ELEMENT, name=CP-123-interlocking-1
_CP-123-interlocking-1_S3, S3
_CP-123-interlocking-1_S4, S4
_CP-123-interlocking-1_S2, S2
*Elset, elset=_CP-124-f1_SNEG, internal, instance=f1, generate
 4103,  4134,     1
*Surface, type=ELEMENT, name=CP-124-f1
_CP-124-f1_SNEG, SNEG
*Elset, elset=_CP-124-interlocking-1_S3, internal, instance=interlocking-1
 16445, 16818, 16905, 16925, 16951, 17025, 17060, 17078, 17084, 17089, 17091, 17092, 17111, 17118, 17135, 17146
 17158, 17160, 17161, 17164, 17165, 17166, 17170, 17171, 17185, 17213
*Elset, elset=_CP-124-interlocking-1_S4, internal, instance=interlocking-1
 17131,
*Elset, elset=_CP-124-interlocking-1_S2, internal, instance=interlocking-1
 17138,
*Elset, elset=_CP-124-interlocking-1_S1, internal, instance=interlocking-1
 17149,
*Surface, type=ELEMENT, name=CP-124-interlocking-1
_CP-124-interlocking-1_S3, S3
_CP-124-interlocking-1_S4, S4
_CP-124-interlocking-1_S2, S2
_CP-124-interlocking-1_S1, S1
*Elset, elset=_CP-125-f1_SNEG, internal, instance=f1, generate
 4135,  4154,     1
*Surface, type=ELEMENT, name=CP-125-f1
_CP-125-f1_SNEG, SNEG
*Elset, elset=_CP-125-interlocking-1_S3, internal, instance=interlocking-1
  8731,  8817,  8928,  9371,  9391,  9457,  9501,  9878,  9889,  9992, 10090, 10185, 10188, 10207, 10249, 10259
 10279, 10280, 10282, 10283, 10284, 10293, 10299, 10310, 10315, 10319, 10331, 10354, 10356, 10359, 10363, 10369
 10371, 10509, 10560, 10561, 10567, 10570, 10572, 10573, 10577, 10592, 10596, 10602, 10604, 10615, 10617, 10624
 10630, 10635, 10637, 10686, 10691, 10698, 10818
*Elset, elset=_CP-125-interlocking-1_S4, internal, instance=interlocking-1
 10089,
*Elset, elset=_CP-125-interlocking-1_S2, internal, instance=interlocking-1
  9928, 10493
*Surface, type=ELEMENT, name=CP-125-interlocking-1
_CP-125-interlocking-1_S3, S3
_CP-125-interlocking-1_S4, S4
_CP-125-interlocking-1_S2, S2
*Elset, elset=_CP-126-f1_SNEG, internal, instance=f1, generate
 4430,  4449,     1
*Surface, type=ELEMENT, name=CP-126-f1
_CP-126-f1_SNEG, SNEG
*Elset, elset=_CP-126-interlocking-1_S4, internal, instance=interlocking-1
 11258,
*Elset, elset=_CP-126-interlocking-1_S3, internal, instance=interlocking-1
 11367, 11385, 11937, 12299, 12302, 12308, 12310, 12314, 12324, 12325, 12332, 12338, 12348, 12351, 12353, 12354
 12355, 12360, 12363, 12393, 12459, 12609, 12622, 12690
*Elset, elset=_CP-126-interlocking-1_S1, internal, instance=interlocking-1
 12365, 12391
*Elset, elset=_CP-126-interlocking-1_S2, internal, instance=interlocking-1
 12378, 12381
*Surface, type=ELEMENT, name=CP-126-interlocking-1
_CP-126-interlocking-1_S4, S4
_CP-126-interlocking-1_S3, S3
_CP-126-interlocking-1_S2, S2
_CP-126-interlocking-1_S1, S1
*Elset, elset=_CP-127-f1_SNEG, internal, instance=f1, generate
 4828,  4847,     1
*Surface, type=ELEMENT, name=CP-127-f1
_CP-127-f1_SNEG, SNEG
*Elset, elset=_CP-127-interlocking-1_S3, internal, instance=interlocking-1
 11364, 11384, 11938, 12042, 12144, 12296, 12320, 12326, 12337, 12356, 12365, 12366, 12372, 12376, 12378, 12381
 12382, 12383, 12386, 12390, 12493, 12559, 12590, 12591, 12644, 12940
*Elset, elset=_CP-127-interlocking-1_S1, internal, instance=interlocking-1
 12357,
*Elset, elset=_CP-127-interlocking-1_S2, internal, instance=interlocking-1
 12371, 12391
*Surface, type=ELEMENT, name=CP-127-interlocking-1
_CP-127-interlocking-1_S3, S3
_CP-127-interlocking-1_S1, S1
_CP-127-interlocking-1_S2, S2
*Elset, elset=_CP-128-f1_SNEG, internal, instance=f1, generate
 4848,  4867,     1
*Surface, type=ELEMENT, name=CP-128-f1
_CP-128-f1_SNEG, SNEG
*Elset, elset=_CP-128-interlocking-1_S3, internal, instance=interlocking-1
 15271, 15555, 15715, 15801, 15911, 15929, 15986, 16398, 16603, 16680, 17162, 17223, 17233, 17235, 17252, 17256
 17257, 17261, 17264, 17269, 17276, 17279, 17300
*Elset, elset=_CP-128-interlocking-1_S4, internal, instance=interlocking-1
 16445, 17149
*Elset, elset=_CP-128-interlocking-1_S1, internal, instance=interlocking-1
 16925, 17166
*Elset, elset=_CP-128-interlocking-1_S2, internal, instance=interlocking-1
 16990, 17213
*Surface, type=ELEMENT, name=CP-128-interlocking-1
_CP-128-interlocking-1_S3, S3
_CP-128-interlocking-1_S4, S4
_CP-128-interlocking-1_S2, S2
_CP-128-interlocking-1_S1, S1
*Elset, elset=_CP-129-f1_SNEG, internal, instance=f1, generate
 4868,  4899,     1
*Surface, type=ELEMENT, name=CP-129-f1
_CP-129-f1_SNEG, SNEG
*Elset, elset=_CP-129-interlocking-1_S3, internal, instance=interlocking-1
 11079, 11392, 11614, 11638, 11650, 11727, 12031, 12309, 12387, 12394, 12396, 12397, 12408, 12416, 12417, 12424
 12432, 12450, 12547, 12560, 12574, 12580, 12587, 12596, 12599, 12603, 12604, 12606, 12607, 12608, 12612, 12615
 12616, 12626, 12646, 12650, 12652, 12654, 12659, 12671, 12674, 12686, 12692, 12737, 12760, 12935, 12966
*Elset, elset=_CP-129-interlocking-1_S4, internal, instance=interlocking-1
 12030, 12657
*Surface, type=ELEMENT, name=CP-129-interlocking-1
_CP-129-interlocking-1_S3, S3
_CP-129-interlocking-1_S4, S4
*Elset, elset=_CP-130-f1_SNEG, internal, instance=f1, generate
 5230,  5249,     1
*Surface, type=ELEMENT, name=CP-130-f1
_CP-130-f1_SNEG, SNEG
*Elset, elset=_CP-130-interlocking-1_S3, internal, instance=interlocking-1
 18134, 18190, 18644, 18646, 18649, 18761, 18882, 18974, 18988, 18996, 19003, 19010, 19025, 19060, 19064, 19069
 19138, 19145, 19172, 19218, 19308, 19316, 19330, 19331, 19333, 19335, 19356, 19372, 19376, 19377, 19382, 19386
 19387, 19391, 19411
*Elset, elset=_CP-130-interlocking-1_S1, internal, instance=interlocking-1
 18892, 19185, 19338, 19339
*Elset, elset=_CP-130-interlocking-1_S4, internal, instance=interlocking-1
 18964, 18992, 19009, 19114, 19349
*Elset, elset=_CP-130-interlocking-1_S2, internal, instance=interlocking-1
 18990, 19095, 19187, 19341, 19347
*Surface, type=ELEMENT, name=CP-130-interlocking-1
_CP-130-interlocking-1_S3, S3
_CP-130-interlocking-1_S1, S1
_CP-130-interlocking-1_S4, S4
_CP-130-interlocking-1_S2, S2
*Elset, elset=_CP-131-f1_SNEG, internal, instance=f1, generate
 5250,  5268,     1
*Surface, type=ELEMENT, name=CP-131-f1
_CP-131-f1_SNEG, SNEG
*Elset, elset=_CP-131-interlocking-1_S3, internal, instance=interlocking-1
 11097, 11217, 11327, 11477, 11723, 11726, 11820, 11821, 11878, 11918, 11927, 11962, 12071, 12077, 12172, 12209
 12221, 12238, 12304, 12317, 12328, 12346, 12375, 12389, 12402, 12409, 12412, 12422, 12436, 12439, 12445, 12471
 12473, 12474, 12477, 12479, 12557, 12677, 12680, 12683, 12684, 12685, 12691, 12703, 12720, 12724, 12726, 12752
 12770, 12876, 12954, 12965
*Elset, elset=_CP-131-interlocking-1_S4, internal, instance=interlocking-1
 10968, 11228, 11658, 12449
*Elset, elset=_CP-131-interlocking-1_S1, internal, instance=interlocking-1
 11801,
*Elset, elset=_CP-131-interlocking-1_S2, internal, instance=interlocking-1
 12285,
*Surface, type=ELEMENT, name=CP-131-interlocking-1
_CP-131-interlocking-1_S3, S3
_CP-131-interlocking-1_S4, S4
_CP-131-interlocking-1_S2, S2
_CP-131-interlocking-1_S1, S1
*Elset, elset=_CP-132-f1_SNEG, internal, instance=f1, generate
 5269,  5299,     1
*Surface, type=ELEMENT, name=CP-132-f1
_CP-132-f1_SNEG, SNEG
*Elset, elset=_CP-132-interlocking-1_S3, internal, instance=interlocking-1
 18770, 18857, 19012, 19104, 19115, 19196, 19202, 19207, 19210, 19230, 19251, 19252, 19258, 19259, 19265, 19274
 19277, 19279, 19285, 19295, 19301, 19305, 19312, 19336, 19431, 19445, 19457
*Elset, elset=_CP-132-interlocking-1_S2, internal, instance=interlocking-1
 19257,
*Elset, elset=_CP-132-interlocking-1_S1, internal, instance=interlocking-1
 19291,
*Surface, type=ELEMENT, name=CP-132-interlocking-1
_CP-132-interlocking-1_S3, S3
_CP-132-interlocking-1_S2, S2
_CP-132-interlocking-1_S1, S1
*Elset, elset=_CP-133-f1_SNEG, internal, instance=f1, generate
 5648,  5666,     1
*Surface, type=ELEMENT, name=CP-133-f1
_CP-133-f1_SNEG, SNEG
*Elset, elset=_CP-133-interlocking-1_S3, internal, instance=interlocking-1
 13099, 13169, 13198, 13204, 13213, 13233, 13252, 13260, 13286, 13329, 13393, 13403, 13456, 13673, 13821, 13857
 13932, 14119, 14145, 14160, 14250, 14372, 14409, 14473, 14597, 14688, 14805, 14923, 14973, 14980, 14993, 15007
 15008, 15010, 15024, 15025, 15027, 15030, 15042, 15068, 15084, 15086, 15092, 15104, 15114
*Elset, elset=_CP-133-interlocking-1_S4, internal, instance=interlocking-1
 13139, 13963
*Elset, elset=_CP-133-interlocking-1_S2, internal, instance=interlocking-1
 13701, 15003
*Surface, type=ELEMENT, name=CP-133-interlocking-1
_CP-133-interlocking-1_S3, S3
_CP-133-interlocking-1_S4, S4
_CP-133-interlocking-1_S2, S2
*Elset, elset=_CP-134-f1_SNEG, internal, instance=f1, generate
 5667,  5697,     1
*Surface, type=ELEMENT, name=CP-134-f1
_CP-134-f1_SNEG, SNEG
*Elset, elset=_CP-134-interlocking-1_S3, internal, instance=interlocking-1
 15257, 15663, 15666, 15836, 15838, 16241, 16246, 16255, 16382, 16409, 16415, 16507, 16513, 16532, 16555, 16641
 16790, 16805, 16830, 16833, 16853, 16867, 16868, 16879, 16886, 16896, 16913, 16962, 16998, 17000, 17007, 17012
 17075, 17175
*Elset, elset=_CP-134-interlocking-1_S2, internal, instance=interlocking-1
 16173, 16785, 16835, 16847, 16859, 16882, 16992, 17292
*Elset, elset=_CP-134-interlocking-1_S4, internal, instance=interlocking-1
 16851, 16852, 16908, 17247
*Elset, elset=_CP-134-interlocking-1_S1, internal, instance=interlocking-1
 16858, 16861, 17291
*Surface, type=ELEMENT, name=CP-134-interlocking-1
_CP-134-interlocking-1_S3, S3
_CP-134-interlocking-1_S2, S2
_CP-134-interlocking-1_S4, S4
_CP-134-interlocking-1_S1, S1
*Elset, elset=_CP-135-interlocking-1_S3, internal, instance=interlocking-1
 13014, 13178, 13273, 13476, 13544, 13556, 13564, 13845, 13975, 14090, 14298, 14300, 14312, 14427, 14436, 14505
 14512, 14561, 14572, 14574, 14577, 14594, 14602, 14605, 14617, 14641, 14645, 14656, 14662, 14821, 14841, 14851
 14856, 14859, 14871, 14878, 14881, 14888, 14909, 14910, 14915, 14921, 14924, 14934, 14975, 14977, 15061, 15119
 15129,
*Elset, elset=_CP-135-interlocking-1_S4, internal, instance=interlocking-1
 13177, 13189, 14185, 14863, 15097
*Elset, elset=_CP-135-interlocking-1_S2, internal, instance=interlocking-1
 14314, 14582, 14592
*Elset, elset=_CP-135-interlocking-1_S1, internal, instance=interlocking-1
 13108,
*Surface, type=ELEMENT, name=CP-135-interlocking-1
_CP-135-interlocking-1_S3, S3
_CP-135-interlocking-1_S4, S4
_CP-135-interlocking-1_S2, S2
_CP-135-interlocking-1_S1, S1
*Elset, elset=_CP-136-interlocking-1_S3, internal, instance=interlocking-1
 15566, 15602, 15776, 15908, 16012, 16134, 16298, 16434, 16653, 16658, 16665, 16672, 16681, 16691, 16695, 16700
 16702, 16710, 16739, 16792, 16840, 16915, 17028, 17117, 17250
*Elset, elset=_CP-136-interlocking-1_S2, internal, instance=interlocking-1
 16675, 16711
*Elset, elset=_CP-136-interlocking-1_S1, internal, instance=interlocking-1
 16701, 16724
*Surface, type=ELEMENT, name=CP-136-interlocking-1
_CP-136-interlocking-1_S3, S3
_CP-136-interlocking-1_S2, S2
_CP-136-interlocking-1_S1, S1
*Elset, elset=_CP-137-interlocking-1_S3, internal, instance=interlocking-1
 17377, 17821, 17929, 17970, 17998, 18078, 18147, 18376, 18395, 18537, 18699, 18702, 18704, 18749, 18831, 18980
 18994, 18999, 19034, 19035, 19045, 19049, 19139, 19224, 19246, 19384, 19396, 19422, 19440, 19461
*Elset, elset=_CP-137-interlocking-1_S4, internal, instance=interlocking-1
 17997, 19005, 19017, 19426, 19455
*Elset, elset=_CP-137-interlocking-1_S2, internal, instance=interlocking-1
 18597, 18962, 18991, 18995, 18998, 19014, 19071, 19387, 19403, 19425
*Elset, elset=_CP-137-interlocking-1_S1, internal, instance=interlocking-1
 19003, 19015, 19060, 19391
*Surface, type=ELEMENT, name=CP-137-interlocking-1
_CP-137-interlocking-1_S3, S3
_CP-137-interlocking-1_S4, S4
_CP-137-interlocking-1_S2, S2
_CP-137-interlocking-1_S1, S1
*Elset, elset=_CP-138-interlocking-1_S3, internal, instance=interlocking-1
 15145, 15157, 15190, 15219, 15320, 15338, 15395, 15400, 15405, 15492, 15494, 15496, 15545, 15593, 15711, 15809
 15816, 15959, 15963, 16284, 16351, 16354, 16363, 16384, 16447, 16584, 16602, 16775, 16780, 16954, 17014, 17021
 17042, 17050, 17132, 17140, 17152, 17153, 17173, 17181, 17202, 17228, 17243, 17281, 17299, 17309
*Elset, elset=_CP-138-interlocking-1_S1, internal, instance=interlocking-1
 15495, 17194
*Elset, elset=_CP-138-interlocking-1_S4, internal, instance=interlocking-1
 16040,
*Surface, type=ELEMENT, name=CP-138-interlocking-1
_CP-138-interlocking-1_S3, S3
_CP-138-interlocking-1_S1, S1
_CP-138-interlocking-1_S4, S4
*Elset, elset=_CP-139-interlocking-1_S3, internal, instance=interlocking-1
 15176, 15249, 15639, 15892, 15894, 16032, 16036, 16094, 16113, 16279, 16422, 16497, 16546, 16669, 16671, 16684
 16723, 16732, 16734, 16737, 16738, 16746, 16763, 16765, 16769, 16782, 16802, 16804, 16808, 16809, 16815, 16828
 16889, 16901, 16918, 16991, 17019, 17030, 17051, 17052, 17053, 17056, 17059, 17076, 17082, 17085, 17095, 17121
 17154, 17242, 17295, 17298, 17306
*Elset, elset=_CP-139-interlocking-1_S2, internal, instance=interlocking-1
 16206, 16667, 16783
*Elset, elset=_CP-139-interlocking-1_S4, internal, instance=interlocking-1
 16328, 17122
*Surface, type=ELEMENT, name=CP-139-interlocking-1
_CP-139-interlocking-1_S3, S3
_CP-139-interlocking-1_S2, S2
_CP-139-interlocking-1_S4, S4
*Elset, elset=_CP-140-interlocking-1_S3, internal, instance=interlocking-1
 17838, 17938, 18084, 18539, 18798, 18803, 18812, 18813, 18827, 18835, 18837, 18842, 18844, 18847, 18850, 18853
 18872, 18893, 18943, 18944, 18960, 19074, 19195, 19444
*Elset, elset=_CP-140-interlocking-1_S1, internal, instance=interlocking-1
 18846, 18851, 18855, 18873
*Elset, elset=_CP-140-interlocking-1_S4, internal, instance=interlocking-1
 19141,
*Surface, type=ELEMENT, name=CP-140-interlocking-1
_CP-140-interlocking-1_S3, S3
_CP-140-interlocking-1_S1, S1
_CP-140-interlocking-1_S4, S4
*Elset, elset=_Surf-125_S1, internal, instance=interlocking-1
  2233,  3389,  3642,  3646,  3665,  3759,  3770,  4024,  8167,  8428,  8473,  8523,  8538,  8644,  9928, 10089
 10157, 10571, 10572, 10601, 10628, 10647, 10698, 10714, 10823
*Elset, elset=_Surf-125_S3, internal, instance=interlocking-1
  2166,  2263,  3094,  3133,  3205,  3241,  3349,  3387,  3390,  3443,  3611,  3622,  3634,  3636,  3638,  3647
  3648,  3651,  3653,  3661,  3666,  3667,  3670,  3676,  3691,  3718,  3737,  3750,  3753,  3768,  3777,  3778
  3800,  3825,  3865,  3956,  4013,  4054,  6500,  6880,  6937,  6948,  6961,  7197,  7277,  7385,  7389,  7563
  7700,  7704,  7815,  7841,  7847,  7879,  7899,  7942,  7956,  8015,  8074,  8111,  8118,  8131,  8137,  8140
  8149,  8177,  8214,  8265,  8278,  8367,  8424,  8425,  8440,  8456,  8500,  8511,  8512,  8520,  8529,  8535
  8548,  8740,  8825,  9087,  9117,  9128,  9141,  9167,  9205,  9408,  9441,  9478,  9664,  9757,  9782,  9884
  9903,  9904,  9912,  9927,  9945,  9966,  9991,  9997, 10069, 10083, 10099, 10124, 10134, 10148, 10150, 10152
 10159, 10167, 10169, 10179, 10186, 10200, 10206, 10209, 10236, 10240, 10246, 10250, 10253, 10255, 10318, 10320
 10321, 10326, 10333, 10336, 10344, 10362, 10370, 10426, 10429, 10455, 10525, 10527, 10536, 10559, 10584, 10595
 10603, 10618, 10629, 10666, 10667, 10670, 10676, 10679, 10682, 10687, 10692, 10693, 10696, 10707, 10710, 10715
 10716, 10723, 10734, 10740, 10782, 10791
*Elset, elset=_Surf-125_S2, internal, instance=interlocking-1
  3677,  3686,  3781,  3982,  7280,  8379,  8435,  8552,  8636,  8657,  9538, 10144, 10153, 10183, 10310, 10363
 10570, 10717
*Elset, elset=_Surf-125_S4, internal, instance=interlocking-1
  2689,  3617,  3678,  3692,  3710,  3734,  3763,  3921,  6588,  8373,  8491,  8513,  8822,  9588,  9862, 10166
 10208, 10245, 10259, 10550, 10567, 10657, 10689
*Surface, type=ELEMENT, name=Surf-125
_Surf-125_S1, S1
_Surf-125_S3, S3
_Surf-125_S2, S2
_Surf-125_S4, S4
*Rigid Body, ref node=f1.frame-RefPt_, elset=f1.frame
*End Assembly
** 
** MATERIALS
** 
*Material, name=high-strength
*Elastic
 2e+12, 0.3
** 
** INTERACTION PROPERTIES
** 
*Surface Interaction, name=IntProp-1
1.,
*Friction
0.,
*Surface Behavior, pressure-overclosure=HARD
** 
** INTERACTIONS
** 
** Interaction: CP-51-f1-interlocking-1
*Contact Pair, interaction=IntProp-1, type=SURFACE TO SURFACE
CP-51-interlocking-1, CP-101-f1
** Interaction: CP-52-f1-interlocking-1
*Contact Pair, interaction=IntProp-1, type=SURFACE TO SURFACE
CP-52-interlocking-1, CP-102-f1
** Interaction: CP-53-f1-interlocking-1
*Contact Pair, interaction=IntProp-1, type=SURFACE TO SURFACE
CP-53-interlocking-1, CP-103-f1
** Interaction: CP-54-f1-interlocking-1
*Contact Pair, interaction=IntProp-1, type=SURFACE TO SURFACE
CP-54-interlocking-1, CP-104-f1
** Interaction: CP-55-f1-interlocking-1
*Contact Pair, interaction=IntProp-1, type=SURFACE TO SURFACE
CP-55-interlocking-1, CP-105-f1
** Interaction: CP-56-f1-interlocking-1
*Contact Pair, interaction=IntProp-1, type=SURFACE TO SURFACE
CP-56-interlocking-1, CP-106-f1
** Interaction: CP-57-f1-interlocking-1
*Contact Pair, interaction=IntProp-1, type=SURFACE TO SURFACE
CP-57-interlocking-1, CP-107-f1
** Interaction: CP-58-f1-interlocking-1
*Contact Pair, interaction=IntProp-1, type=SURFACE TO SURFACE
CP-58-interlocking-1, CP-108-f1
** Interaction: CP-59-f1-interlocking-1
*Contact Pair, interaction=IntProp-1, type=SURFACE TO SURFACE
CP-59-interlocking-1, CP-109-f1
** Interaction: CP-60-f1-interlocking-1
*Contact Pair, interaction=IntProp-1, type=SURFACE TO SURFACE
CP-60-interlocking-1, CP-110-f1
** Interaction: CP-61-f1-interlocking-1
*Contact Pair, interaction=IntProp-1, type=SURFACE TO SURFACE
CP-61-interlocking-1, CP-111-f1
** Interaction: CP-62-f1-interlocking-1
*Contact Pair, interaction=IntProp-1, type=SURFACE TO SURFACE
CP-62-interlocking-1, CP-112-f1
** Interaction: CP-63-f1-interlocking-1
*Contact Pair, interaction=IntProp-1, type=SURFACE TO SURFACE
CP-63-interlocking-1, CP-113-f1
** Interaction: CP-64-f1-interlocking-1
*Contact Pair, interaction=IntProp-1, type=SURFACE TO SURFACE
CP-64-interlocking-1, CP-114-f1
** Interaction: CP-65-f1-interlocking-1
*Contact Pair, interaction=IntProp-1, type=SURFACE TO SURFACE
CP-65-interlocking-1, CP-115-f1
** Interaction: CP-66-f1-interlocking-1
*Contact Pair, interaction=IntProp-1, type=SURFACE TO SURFACE
CP-66-interlocking-1, CP-116-f1
** Interaction: CP-67-f1-interlocking-1
*Contact Pair, interaction=IntProp-1, type=SURFACE TO SURFACE
CP-67-interlocking-1, CP-117-f1
** Interaction: CP-68-f1-interlocking-1
*Contact Pair, interaction=IntProp-1, type=SURFACE TO SURFACE
CP-68-interlocking-1, CP-118-f1
** Interaction: CP-69-f1-interlocking-1
*Contact Pair, interaction=IntProp-1, type=SURFACE TO SURFACE
CP-69-interlocking-1, CP-119-f1
** Interaction: CP-70-f1-interlocking-1
*Contact Pair, interaction=IntProp-1, type=SURFACE TO SURFACE
CP-70-interlocking-1, CP-120-f1
** ... 42 like lines cut
** Interaction: CP-85-interlocking-1-interlocking-1
*Contact Pair, interaction=IntProp-1, type=SURFACE TO SURFACE
CP-86-interlocking-1, CP-85-interlocking-1
** Interaction: CP-86-interlocking-1-interlocking-1
*Contact Pair, interaction=IntProp-1, type=SURFACE TO SURFACE
CP-88-interlocking-1, CP-87-interlocking-1
** Interaction: CP-87-interlocking-1-interlocking-1
*Contact Pair, interaction=IntProp-1, type=SURFACE TO SURFACE
CP-90-interlocking-1, CP-89-interlocking-1
** Interaction: CP-88-interlocking-1-interlocking-1
*Contact Pair, interaction=IntProp-1, type=SURFACE TO SURFACE
CP-92-interlocking-1, CP-91-interlocking-1
** Interaction: CP-89-interlocking-1-interlocking-1
*Contact Pair, interaction=IntProp-1, type=SURFACE TO SURFACE
CP-94-interlocking-1, CP-93-interlocking-1
** Interaction: CP-90-interlocking-1-interlocking-1
*Contact Pair, interaction=IntProp-1, type=SURFACE TO SURFACE
CP-96-interlocking-1, CP-95-interlocking-1
** Interaction: CP-91-interlocking-1-interlocking-1
*Contact Pair, interaction=IntProp-1, type=SURFACE TO SURFACE
CP-98-interlocking-1, CP-97-interlocking-1
** Interaction: CP-92-interlocking-1-interlocking-1
*Contact Pair, interaction=IntProp-1, type=SURFACE TO SURFACE
CP-100-interlocking-1, CP-99-interlocking-1
** Interaction: CP-93-interlocking-1-interlocking-1
*Contact Pair, interaction=IntProp-1, type=SURFACE TO SURFACE
CP-102-interlocking-1, CP-101-interlocking-1
** Interaction: CP-94-interlocking-1-interlocking-1
*Contact Pair, interaction=IntProp-1, type=SURFACE TO SURFACE
CP-104-interlocking-1, CP-103-interlocking-1
** Interaction: CP-95-interlocking-1-interlocking-1
*Contact Pair, interaction=IntProp-1, type=SURFACE TO SURFACE
CP-106-interlocking-1, CP-105-interlocking-1
** Interaction: CP-96-interlocking-1-interlocking-1
*Contact Pair, interaction=IntProp-1, type=SURFACE TO SURFACE
CP-108-interlocking-1, CP-107-interlocking-1
** Interaction: CP-97-interlocking-1-interlocking-1
*Contact Pair, interaction=IntProp-1, type=SURFACE TO SURFACE
CP-110-interlocking-1, CP-109-interlocking-1
** Interaction: CP-98-interlocking-1-interlocking-1
*Contact Pair, interaction=IntProp-1, type=SURFACE TO SURFACE
CP-112-interlocking-1, CP-111-interlocking-1
** Interaction: CP-99-interlocking-1-interlocking-1
*Contact Pair, interaction=IntProp-1, type=SURFACE TO SURFACE
CP-114-interlocking-1, CP-113-interlocking-1
** Interaction: CP-100-interlocking-1-interlocking-1
*Contact Pair, interaction=IntProp-1, type=SURFACE TO SURFACE
CP-116-interlocking-1, CP-115-interlocking-1
** Interaction: CP-101-interlocking-1-interlocking-1
*Contact Pair, interaction=IntProp-1, type=SURFACE TO SURFACE
CP-118-interlocking-1, CP-117-interlocking-1
** Interaction: CP-102-interlocking-1-interlocking-1
*Contact Pair, interaction=IntProp-1, type=SURFACE TO SURFACE
CP-120-interlocking-1, CP-119-interlocking-1
** Interaction: CP-103-interlocking-1-interlocking-1
*Contact Pair, interaction=IntProp-1, type=SURFACE TO SURFACE
CP-122-interlocking-1, CP-121-interlocking-1
** Interaction: CP-104-interlocking-1-interlocking-1
*Contact Pair, interaction=IntProp-1, type=SURFACE TO SURFACE
CP-124-interlocking-1, CP-123-interlocking-1
** ... 24 like lines cut
** ----------------------------------------------------------------
** 
** STEP: Step-1
** 
*Step, name=Step-1, nlgeom=NO
*Static
1., 1., 1e-05, 1.
** 
** BOUNDARY CONDITIONS
** 
** Name: BC-1 Type: Symmetry/Antisymmetry/Encastre
*Boundary
Set-1, ENCASTRE
** 
** LOADS
** 
** Name: Load-1   Type: Pressure
*Dsload
Surf-125, P, 100.
** 
** OUTPUT REQUESTS
** 
*Restart, write, frequency=0
** 
** FIELD OUTPUT: F-Output-1
** 
*Output, field, variable=PRESELECT
** 
** HISTORY OUTPUT: H-Output-1
** 
*Output, history, variable=PRESELECT
*End Step
