*Heading
** Job name: interlocking-1l Model name: Versatile-block-remeshed
** Generated by: Abaqus/CAE 2023
*Preprint, echo=NO, model=NO, history=NO, contact=NO
**
** PARTS
**
*Part, name=frame-block
*Node
      1,   14.1421404,  -14.1421404,           0.
      2,   14.1421404, -0.00749999983,   14.1421404
      3,   14.1346397,  -14.1421404,   14.1421404
      4,   14.1421404,   14.1421289,           0.
      5,   14.1346397,   14.1421299,   14.1421404
      6,           0.,           0.,           0.
      7,           0.,  -14.1496296,   14.1421404
      8,           0.,   14.1421299,   14.1421404
      9,   28.2842693, -0.00749999983,           0.
     10,           0., -0.0112503199,   14.1421404
     11,   14.1421404, -8.79705198e-09,           0.
     12,   14.1421404,  -12.7286768,   1.41421402
     13,   14.1421404,  -11.3152122,   2.82842803
     14,   14.1421404,  -9.90174866,   4.24264193
     15,   14.1421404,  -8.48828411,   5.65685606
     16,   14.1421404,  -7.07482004,   7.07107019
     17,   14.1421404,  -5.66135597,   8.48528385
     18,   14.1421404,   -4.2478919,   9.89949799
     19,   14.1421404,  -2.83442807,   11.3137121
     20,   14.1421404,    -1.420964,   12.7279263
** ... 708 like lines cut
*Element, type=R3D3
1, 238, 235, 227
2, 226,  27,  28
39, 248, 244, 257
40, 262, 258, 256
313, 458, 456, 455
314, 464, 451, 447
315, 460, 445, 446
316, 460, 446, 448
349, 480, 468, 487
350, 486, 491, 488
385, 511, 504, 493
386, 510, 515, 512
455, 562, 559, 557
456, 554, 543, 558
491, 582, 574, 568
492, 583, 585, 563
526, 601, 588, 605
527, 609, 606, 604
562, 629, 619, 611
563, 625, 610, 612
** ... 14 like lines cut
*Element, type=R3D4
 3, 222,  12,  13, 218
 4,  20,   2,  21, 221
 5, 221, 213,  19,  20
 6,  18, 232, 214,  17
 7, 225, 228, 229, 227
 8,  16, 215, 216,  15
 9, 216, 217,  14,  15
10,  14, 217, 218,  13
11,  27, 226,  26,   3
12, 236, 234, 233,  23
13, 213, 221, 231, 232
14, 221,  21,  22, 231
15,  32,   1,  12, 222
16, 223, 230, 217, 237
17, 228, 225, 226, 224
18, 215, 229, 228, 216
19,  26, 226, 219,  25
20,  24, 220, 236,  23
21,  18,  19, 213, 232
22,  25, 219, 220,  24
** ... 689 like lines cut
*Node
    729,   14.1421404, -0.00749999983,   14.1421404
*Nset, nset=frame-block-RefPt_, internal
729, 
*Elset, elset=frame-block, generate
   1,  743,    1
*End Part
**  
*Part, name=interlocking-block
*Node
      1,   14.1421404,  -14.1421404,           0.
      2,   14.1421404, -0.00749999983,   14.1421404
      3,   14.1346397,  -14.1421404,   14.1421404
      4,           0.,  -14.1496296,   14.1421404
      5,   28.2842693, -0.00749999983,           0.
      6,           0., -0.0112503199,   14.1421404
      7,           0.,           0.,           0.
      8,   14.1421404, -8.79704842e-09,           0.
      9,   14.1421404,   14.1421289,           0.
     10,   14.1346397,   14.1421299,   14.1421404
     11,           0.,   14.1421299,   14.1421404
     12,   14.1421404,  -12.7286768,   1.41421402
     13,   14.1421404,  -11.3152122,   2.82842803
     14,   14.1421404,  -9.90174866,   4.24264193
     15,   14.1421404,  -8.48828411,   5.65685606
     16,   14.1421404,  -7.07482004,   7.07107019
     17,   14.1421404,  -5.66135597,   8.48528385
     18,   14.1421404,   -4.2478919,   9.89949799
     19,   14.1421404,  -2.83442807,   11.3137121
     20,   14.1421404,    -1.420964,   12.7279263
** ... 9538 like lines cut
*Element, type=C3D10
   1,  612,  613,  614,  615, 1369, 1368, 1367, 1371, 1370, 1372
   2,  612,  615,  616,  617, 1371, 1374, 1373, 1376, 1375, 1377
   3,  612,  618,  619,  528, 1380, 1379, 1378, 1382, 1381, 1383
   4,  612,  614,  620,  621, 1367, 1385, 1384, 1387, 1386, 1388
   5,  612,  528,  619,  622, 1382, 1383, 1378, 1390, 1389, 1391
   6,  623,  624,  625,  626, 1394, 1393, 1392, 1396, 1395, 1397
   7,  627,  625,  628,  629, 1400, 1399, 1398, 1402, 1401, 1403
   8,  630,  631,  632,  626, 1406, 1405, 1404, 1408, 1407, 1409
   9,  623,  629,  625,  627, 1410, 1401, 1392, 1411, 1402, 1400
  10,  623,  633,  624,  626, 1413, 1412, 1394, 1396, 1414, 1395
  11,  634,  623,  633,  624, 1416, 1413, 1415, 1417, 1394, 1412
  12,  626,  635,  623,  630, 1419, 1418, 1396, 1408, 1420, 1421
  13,  636,  611,  610,  609, 1424, 1423, 1422, 1426, 1425, 1427
  14,  626,  632,  637,  631, 1409, 1429, 1428, 1407, 1405, 1430
  15,  626,  637,  632,  633, 1428, 1429, 1409, 1414, 1431, 1432
  16,  638,  628,  639,  640, 1435, 1434, 1433, 1437, 1436, 1438
  17,  641,  638,  628,  639, 1440, 1435, 1439, 1441, 1433, 1434
  18,  640,  642,  643,  644, 1444, 1443, 1442, 1446, 1445, 1447
  19,  640,  645,  646,  628, 1450, 1449, 1448, 1436, 1451, 1452
  20,  640,  647,  628,  646, 1454, 1453, 1436, 1448, 1455, 1452
** ... 6198 like lines cut
*Nset, nset=Set-1, generate
    1,  9558,     1
*Elset, elset=Set-1, generate
    1,  6218,     1
** Section: Section-1
*Solid Section, elset=Set-1, material=high-strength
,
*End Part
**  
**
** ASSEMBLY
**
*Assembly, name=Assembly
**  
*Instance, name=frame-block-1, part=frame-block
*End Instance
**  
*Instance, name=frame-block-2, part=frame-block
        14.2,         14.2,           0.
*End Instance
**  
*Instance, name=frame-block-3, part=frame-block
        14.2,        -14.2,           0.
*End Instance
**  
*Instance, name=frame-block-5, part=frame-block
        28.4,        -28.4,           0.
*End Instance
**  
*Instance, name=frame-block-6, part=frame-block
        42.6,         42.6,           0.
*End Instance
**  
*Instance, name=frame-block-7, part=frame-block
        42.6,        -42.6,           0.
*End Instance
**  
*Instance, name=frame-block-8, part=frame-block
        56.8,         28.4,           0.
*End Instance
**  
*Instance, name=frame-block-9, part=frame-block
        56.8,        -28.4,           0.
*End Instance
**  
*Instance, name=frame-block-10, part=frame-block
         71.,         14.2,           0.
*End Instance
**  
*Instance, name=frame-block-4, part=frame-block
        28.4,         28.4,           0.
*End Instance
**  
*Instance, name=frame-block-11, part=frame-block
         71.,        -14.2,           0.
*End Instance
**  
*Instance, name=frame-block-12, part=frame-block
        85.2,           0.,           0.
*End Instance
**  
*Instance, name=interlocking-block-1, part=interlocking-block
        28.4,           0.,           0.
*End Instance
**  
*Instance, name=interlocking-block-2, part=interlocking-block
        42.6,         14.2,           0.
*End Instance
**  
*Instance, name=interlocking-block-3, part=interlocking-block
        42.6,        -14.2,           0.
*End Instance
**  
*Instance, name=interlocking-block-4, part=interlocking-block
        56.8,           0.,           0.
*End Instance
**  
*Nset, nset=Set-3, instance=frame-block-1, generate
   1,  729,    1
*Nset, nset=Set-3, instance=frame-block-2, generate
   1,  729,    1
*Nset, nset=Set-3, instance=frame-block-6, generate
   1,  729,    1
*Nset, nset=Set-3, instance=frame-block-10, generate
   1,  729,    1
*Nset, nset=Set-3, instance=frame-block-8, generate
   1,  729,    1
*Nset, nset=Set-3, instance=frame-block-11, generate
   1,  729,    1
*Nset, nset=Set-3, instance=frame-block-3, generate
   1,  729,    1
*Nset, nset=Set-3, instance=frame-block-7, generate
   1,  729,    1
*Nset, nset=Set-3, instance=frame-block-4, generate
   1,  729,    1
*Nset, nset=Set-3, instance=frame-block-5, generate
   1,  729,    1
*Nset, nset=Set-3, instance=frame-block-9, generate
   1,  729,    1
*Nset, nset=Set-3, instance=frame-block-12, generate
   1,  729,    1
*Elset, elset=Set-3, instance=frame-block-1, generate
   1,  743,    1
*Elset, elset=Set-3, instance=frame-block-2, generate
   1,  743,    1
*Elset, elset=Set-3, instance=frame-block-6, generate
   1,  743,    1
*Elset, elset=Set-3, instance=frame-block-10, generate
   1,  743,    1
*Elset, elset=Set-3, instance=frame-block-8, generate
   1,  743,    1
*Elset, elset=Set-3, instance=frame-block-11, generate
   1,  743,    1
*Elset, elset=Set-3, instance=frame-block-3, generate
   1,  743,    1
*Elset, elset=Set-3, instance=frame-block-7, generate
   1,  743,    1
*Elset, elset=Set-3, instance=frame-block-4, generate
   1,  743,    1
*Elset, elset=Set-3, instance=frame-block-5, generate
   1,  743,    1
*Elset, elset=Set-3, instance=frame-block-9, generate
   1,  743,    1
*Elset, elset=Set-3, instance=frame-block-12, generate
   1,  743,    1
*Nset, nset=frame-set, instance=frame-block-1, generate
   1,  729,    1
*Nset, nset=frame-set, instance=frame-block-2, generate
   1,  729,    1
*Nset, nset=frame-set, instance=frame-block-6, generate
   1,  729,    1
*Nset, nset=frame-set, instance=frame-block-10, generate
   1,  729,    1
*Nset, nset=frame-set, instance=frame-block-8, generate
   1,  729,    1
*Nset, nset=frame-set, instance=frame-block-11, generate
   1,  729,    1
*Nset, nset=frame-set, instance=frame-block-3, generate
   1,  729,    1
*Nset, nset=frame-set, instance=frame-block-7, generate
   1,  729,    1
*Nset, nset=frame-set, instance=frame-block-4, generate
   1,  729,    1
*Nset, nset=frame-set, instance=frame-block-5, generate
   1,  729,    1
*Nset, nset=frame-set, instance=frame-block-9, generate
   1,  729,    1
*Nset, nset=frame-set, instance=frame-block-12, generate
   1,  729,    1
*Elset, elset=frame-set, instance=frame-block-1, generate
   1,  743,    1
*Elset, elset=frame-set, instance=frame-block-2, generate
   1,  743,    1
*Elset, elset=frame-set, instance=frame-block-6, generate
   1,  743,    1
*Elset, elset=frame-set, instance=frame-block-10, generate
   1,  743,    1
*Elset, elset=frame-set, instance=frame-block-8, generate
   1,  743,    1
*Elset, elset=frame-set, instance=frame-block-11, generate
   1,  743,    1
*Elset, elset=frame-set, instance=frame-block-3, generate
   1,  743,    1
*Elset, elset=frame-set, instance=frame-block-7, generate
   1,  743,    1
*Elset, elset=frame-set, instance=frame-block-4, generate
   1,  743,    1
*Elset, elset=frame-set, instance=frame-block-5, generate
   1,  743,    1
*Elset, elset=frame-set, instance=frame-block-9, generate
   1,  743,    1
*Elset, elset=frame-set, instance=frame-block-12, generate
   1,  743,    1
*Nset, nset=interlocking-set, instance=interlocking-block-1, generate
    1,  9558,     1
*Nset, nset=interlocking-set, instance=interlocking-block-2, generate
    1,  9558,     1
*Nset, nset=interlocking-set, instance=interlocking-block-3, generate
    1,  9558,     1
*Nset, nset=interlocking-set, instance=interlocking-block-4, generate
    1,  9558,     1
*Elset, elset=interlocking-set, instance=interlocking-block-1, generate
    1,  6218,     1
*Elset, elset=interlocking-set, instance=interlocking-block-2, generate
    1,  6218,     1
*Elset, elset=interlocking-set, instance=interlocking-block-3, generate
    1,  6218,     1
*Elset, elset=interlocking-set, instance=interlocking-block-4, generate
    1,  6218,     1
*Elset, elset=_Surf-115_S3, internal, instance=interlocking-block-2
  118,  272,  291,  543,  969,  991, 1640, 1646, 1714, 1728, 1773, 1835, 1842, 1867, 2014, 2029
 2037, 2050, 2102, 2104, 2150, 2510, 2511, 2515, 2542, 2545, 2553, 2560, 2563, 2564, 2566, 2592
 2614, 2630, 2632, 2639, 2642, 2643, 2649, 2651, 2660, 2692, 2697, 2703, 2710, 2714, 2716, 2720
 2725, 2733, 2744, 2750, 2755, 2756, 2757, 2765, 2774, 2780, 2783, 2785, 2801, 2804, 2811, 2820
 2823, 2835, 2851, 2900, 2901, 2912, 2926, 2966, 2969, 2982, 2984, 2987, 2998, 3024, 3037, 3121
 3124, 3145, 4473, 4478, 4803, 4931, 5277, 5280, 5285, 5288, 5289, 5300, 5744, 5807, 5971, 6074
*Elset, elset=_Surf-115_S3, internal, instance=interlocking-block-3
  358,  509, 1690, 1707, 2298, 2561, 2573, 2574, 2589, 2590, 2689, 2920, 3025, 3366, 3369, 3391
 3392, 3401, 3408, 3567, 3654, 3660, 3670, 3672, 3675, 3687, 3688, 3690, 3693, 3696, 3701, 3704
 3715, 3724, 3738, 3739, 3743, 3744, 3761, 3767, 3773, 3801, 3802, 3815, 3820, 3841, 3843, 3851
 3853, 3859, 3860, 3870, 3873, 3949, 4033, 4301, 4326, 4331, 4334, 4354, 4367, 4372, 4378, 4392
 4405, 4406, 4412, 4415, 4423, 4424, 4442, 4443, 4450, 4452, 4460, 4465, 4472, 4474, 4496, 4500
 4511, 4560, 4565, 4566, 4579, 4582, 4602, 4604, 4612, 4620, 4622, 4627, 4634, 4638, 4641, 4649
 4652, 4665, 4666, 4704, 4708, 4884, 4960, 5157, 5211, 5239, 5344, 5466, 6108
*Elset, elset=_Surf-115_S4, internal, instance=interlocking-block-2
  677, 1627, 1761, 2051, 2610, 2665, 3506, 3997, 4204
*Elset, elset=_Surf-115_S4, internal, instance=interlocking-block-3
 3822, 5082, 6106
*Elset, elset=_Surf-115_S1, internal, instance=interlocking-block-2
 1731, 1857, 1923, 2645
*Elset, elset=_Surf-115_S2, internal, instance=interlocking-block-2
 1789, 2139, 2509, 2685, 3952, 4470, 6004
*Elset, elset=_Surf-115_S2, internal, instance=interlocking-block-3
  487, 4333, 4425, 4461
*Surface, type=ELEMENT, name=Surf-115
_Surf-115_S3, S3
_Surf-115_S4, S4
_Surf-115_S2, S2
_Surf-115_S1, S1
*Rigid Body, ref node=frame-block-1.frame-block-RefPt_, elset=frame-block-1.frame-block
*Rigid Body, ref node=frame-block-2.frame-block-RefPt_, elset=frame-block-2.frame-block
*Rigid Body, ref node=frame-block-3.frame-block-RefPt_, elset=frame-block-3.frame-block
*Rigid Body, ref node=frame-block-5.frame-block-RefPt_, elset=frame-block-5.frame-block
*Rigid Body, ref node=frame-block-6.frame-block-RefPt_, elset=frame-block-6.frame-block
*Rigid Body, ref node=frame-block-7.frame-block-RefPt_, elset=frame-block-7.frame-block
*Rigid Body, ref node=frame-block-8.frame-block-RefPt_, elset=frame-block-8.frame-block
*Rigid Body, ref node=frame-block-9.frame-block-RefPt_, elset=frame-block-9.frame-block
*Rigid Body, ref node=frame-block-10.frame-block-RefPt_, elset=frame-block-10.frame-block
*Rigid Body, ref node=frame-block-4.frame-block-RefPt_, elset=frame-block-4.frame-block
*Rigid Body, ref node=frame-block-11.frame-block-RefPt_, elset=frame-block-11.frame-block
*Rigid Body, ref node=frame-block-12.frame-block-RefPt_, elset=frame-block-12.frame-block
*End Assembly
** 
** MATERIALS
** 
*Material, name=high-strength
*Density
1.,
*Elastic
 1e+10, 0.3
** 
** INTERACTION PROPERTIES
** 
*Surface Interaction, name=IntProp-1
*Friction
0.,
*Surface Behavior, pressure-overclosure=HARD
** ----------------------------------------------------------------
** 
** STEP: Step-1
** 
*Step, name=Step-1, nlgeom=YES
*Dynamic, Explicit
, 1.
*Bulk Viscosity
0.06, 1.2
** 
** BOUNDARY CONDITIONS
** 
** Name: BC-1 Type: Symmetry/Antisymmetry/Encastre
*Boundary
Set-3, ENCASTRE
** 
** LOADS
** 
** Name: Load-1   Type: Pressure
*Dsload
Surf-115, P, 100.
** 
** OUTPUT REQUESTS
** 
*Restart, write, number interval=1, time marks=NO
** 
** FIELD OUTPUT: F-Output-1
** 
*Output, field, variable=PRESELECT
** 
** HISTORY OUTPUT: H-Output-1
** 
*Output, history, variable=PRESELECT, frequency=1
*End Step
