*Heading
** Job name: rigid-cell-test Model name: interlocking-1
** Generated by: Abaqus/CAE 2023
*Preprint, echo=NO, model=NO, history=NO, contact=NO
**
** PARTS
**
*Part, name=interlocking
*Node
      1,    1.9922291, -0.000169329942,           0.
      2, 0.000229089957, -0.000169329956,           0.
      3,  0.996229053,  0.995830655,    1.4085567
      4, 0.000229089943, -0.000169329971,   1.40855658
      5,  0.996229112, -0.996169209,   1.40855682
      6, 0.000229089957,  -1.99216938,           0.
      7,    1.9922291,  -1.99216938,           0.
      8,    1.9922291,  -1.99216938,   1.40855658
      9,   2.98822904, -0.996169269,    1.4085567
     10,    1.9922291, -0.000169329956,    1.4085567
     11, -0.000169329942,   -1.9922291,           0.
     12, -0.000169329956, -0.000229089957,           0.
     13,  0.995830655, -0.996229053,    1.4085567
     14, -0.000169329971, -0.000229089943,   1.40855658
     15, -0.996169209, -0.996229112,   1.40855682
     16,  -1.99216938, -0.000229089957,           0.
     17,  -1.99216938,   -1.9922291,           0.
     18,  -1.99216938,   -1.9922291,   1.40855658
     19, -0.996169269,  -2.98822904,    1.4085567
     20, -0.000169329956,   -1.9922291,    1.4085567
** ... 1540 like lines cut
*Element, type=R3D3
1, 570, 563, 568
33, 578, 577, 575
34, 579, 576, 571
35, 573, 580, 581
53, 587,  73,  74
73, 613, 615, 608
105, 637, 630, 635
137, 646, 645, 643
138, 644,  90,  89
139, 647, 638, 639
158, 655, 115, 116
178, 681, 683, 676
210, 689, 131, 132
230, 702, 138, 137
250, 716, 715, 713
251, 717, 708, 709
252, 712, 151, 152
271, 724, 721, 728
290, 737,  66,  65
310, 749, 108, 107
** ... 84 like lines cut
*Element, type=R3D4
 2, 549,  41,  42, 553
 3,  46,   2,  47, 550
 4,  48,  49, 566, 557
 5,  45,  46, 550, 564
 6, 551, 552,  43,  44
 7, 559, 565, 561, 560
 8, 561, 565, 563, 562
 9,  52,   3,  53, 554
10, 560,  54,  55, 559
11, 554, 555,  51,  52
12, 561, 562, 556, 555
13, 562, 569, 566, 556
14, 550,  47,  48, 557
15,  58,   1,  41, 549
16,  57,  58, 549, 558
17, 558, 565,  56,  57
18, 555, 554, 560, 561
19, 554,  53,  54, 560
20, 553,  42,  43, 552
21, 555, 556,  50,  51
** ... 1480 like lines cut
*Node
   1561, 0.000169329971, 0.000229089943,   1.40855658
*Nset, nset=interlocking-RefPt_, internal
1561, 
*Elset, elset=interlocking, generate
    1,  1604,     1
*End Part
**  
**
** ASSEMBLY
**
*Assembly, name=Assembly
**  
*Instance, name=interlocking-1, part=interlocking
*End Instance
**  
*Nset, nset=Set-2, instance=interlocking-1
    1,    5,    7,    8,    9,   10,   11,   13,   15,   17,   18,   19,   20,   21,   25,   27
   28,   29,   30,   89,   90,   91,   92,   93,   94,  101,  102,  103,  104,  105,  106,  107
  108,  109,  110,  111,  112,  113,  114,  115,  116,  117,  118,  119,  120,  121,  122,  123
  124,  125,  126,  127,  128,  129,  130,  135,  136,  137,  138,  139,  140,  141,  142,  143
  144,  145,  146,  153,  154,  155,  156,  157,  158,  216,  217,  218,  219,  220,  221,  228
  229,  230,  231,  232,  233,  234,  235,  236,  237,  238,  239,  240,  241,  242,  243,  244
  245,  246,  247,  248,  249,  250,  251,  252,  253,  254,  255,  256,  257,  258,  259,  260
  261,  262,  263,  264,  265,  266,  267,  268,  269,  270,  271,  272,  273,  274,  275,  276
  277,  278,  279,  280,  281,  282,  283,  284,  285,  343,  344,  345,  346,  347,  348,  355
  356,  357,  358,  359,  360,  361,  362,  363,  364,  365,  366,  367,  368,  369,  370,  371
  372,  373,  374,  375,  376,  377,  378,  379,  380,  381,  382,  383,  384,  389,  390,  391
  392,  393,  394,  395,  396,  397,  398,  399,  400,  407,  408,  409,  410,  411,  412,  638
  639,  640,  641,  642,  643,  644,  645,  646,  647,  648,  649,  650,  651,  652,  653,  654
  655,  656,  657,  658,  659,  660,  661,  662,  663,  664,  665,  666,  667,  668,  669,  670
  671,  672,  673,  674,  675,  676,  677,  678,  679,  680,  681,  682,  683,  696,  697,  698
  699,  700,  701,  702,  703,  704,  705,  706,  707,  720,  721,  722,  723,  724,  725,  726
  727,  728,  729,  730,  743,  744,  745,  746,  747,  748,  749,  750,  751,  752,  753,  754
  891,  892,  893,  894,  895,  896,  897,  898,  899,  900,  901,  902,  903,  904,  905,  906
  907,  908,  909,  910,  911,  912,  913,  914,  915,  916,  917,  918,  919,  920,  921,  922
  923,  924,  925,  926,  927,  928,  929,  930,  931,  932,  933,  934,  935,  936,  949,  950
** ... 8 like lines cut
*Elset, elset=Set-2, instance=interlocking-1
  137,  138,  139,  140,  141,  142,  143,  144,  145,  146,  147,  148,  149,  150,  151,  152
  153,  154,  155,  156,  157,  158,  159,  160,  161,  162,  163,  164,  165,  166,  167,  168
  169,  170,  171,  172,  173,  174,  175,  176,  177,  178,  179,  180,  181,  182,  183,  184
  185,  186,  187,  188,  189,  190,  191,  192,  193,  194,  195,  196,  197,  198,  199,  200
  201,  202,  203,  204,  205,  206,  207,  208,  209,  230,  231,  232,  233,  234,  235,  236
  237,  238,  239,  240,  241,  242,  243,  244,  245,  246,  247,  248,  249,  271,  272,  273
  274,  275,  276,  277,  278,  279,  280,  281,  282,  283,  284,  285,  286,  287,  288,  289
  310,  311,  312,  313,  314,  315,  316,  317,  318,  319,  320,  321,  322,  323,  324,  325
  326,  327,  328,  329,  538,  539,  540,  541,  542,  543,  544,  545,  546,  547,  548,  549
  550,  551,  552,  553,  554,  555,  556,  557,  558,  559,  560,  561,  562,  563,  564,  565
  566,  567,  568,  569,  570,  571,  572,  573,  574,  575,  576,  577,  578,  579,  580,  581
  582,  583,  584,  585,  586,  587,  588,  589,  590,  591,  592,  593,  594,  595,  596,  597
  598,  599,  600,  601,  602,  603,  604,  605,  606,  607,  608,  609,  610,  631,  632,  633
  634,  635,  636,  637,  638,  639,  640,  641,  642,  643,  644,  645,  646,  647,  648,  649
  650,  651,  652,  653,  654,  655,  656,  657,  658,  659,  660,  661,  662,  663,  664,  665
  666,  667,  668,  669,  670,  671,  672,  673,  674,  675,  676,  677,  678,  679,  680,  681
  682,  683,  684,  685,  686,  687,  688,  689,  690,  711,  712,  713,  714,  715,  716,  717
  718,  719,  720,  721,  722,  723,  724,  725,  726,  727,  728,  729,  730,  939,  940,  941
  942,  943,  944,  945,  946,  947,  948,  949,  950,  951,  952,  953,  954,  955,  956,  957
  958,  959,  960,  961,  962,  963,  964,  965,  966,  967,  968,  969,  970,  971,  972,  973
** ... 7 like lines cut
*Elset, elset=_CP-1-interlocking-1_SPOS, internal, instance=interlocking-1, generate
  1,  32,   1
*Surface, type=ELEMENT, name=CP-1-interlocking-1
_CP-1-interlocking-1_SPOS, SPOS
*Elset, elset=_CP-2-interlocking-1_SPOS, internal, instance=interlocking-1, generate
 1276,  1307,     1
*Surface, type=ELEMENT, name=CP-2-interlocking-1
_CP-2-interlocking-1_SPOS, SPOS
*Elset, elset=_CP-38-interlocking-1_SPOS, internal, instance=interlocking-1, generate
 33,  52,   1
*Surface, type=ELEMENT, name=CP-38-interlocking-1
_CP-38-interlocking-1_SPOS, SPOS
*Elset, elset=_CP-39-interlocking-1_SPOS, internal, instance=interlocking-1, generate
 1256,  1275,     1
*Surface, type=ELEMENT, name=CP-39-interlocking-1
_CP-39-interlocking-1_SPOS, SPOS
*Elset, elset=_CP-40-interlocking-1_SPOS, internal, instance=interlocking-1, generate
 53,  72,   1
*Surface, type=ELEMENT, name=CP-40-interlocking-1
_CP-40-interlocking-1_SPOS, SPOS
*Elset, elset=_CP-41-interlocking-1_SPOS, internal, instance=interlocking-1, generate
 434,  453,    1
*Surface, type=ELEMENT, name=CP-41-interlocking-1
_CP-41-interlocking-1_SPOS, SPOS
*Elset, elset=_CP-42-interlocking-1_SPOS, internal, instance=interlocking-1, generate
  73,  104,    1
*Surface, type=ELEMENT, name=CP-42-interlocking-1
_CP-42-interlocking-1_SPOS, SPOS
*Elset, elset=_CP-43-interlocking-1_SPOS, internal, instance=interlocking-1, generate
 402,  433,    1
*Surface, type=ELEMENT, name=CP-43-interlocking-1
_CP-43-interlocking-1_SPOS, SPOS
*Elset, elset=_CP-44-interlocking-1_SNEG, internal, instance=interlocking-1, generate
 250,  329,    1
*Surface, type=ELEMENT, name=CP-44-interlocking-1
_CP-44-interlocking-1_SNEG, SNEG
*Elset, elset=_CP-45-interlocking-1_SPOS, internal, instance=interlocking-1, generate
 250,  329,    1
*Surface, type=ELEMENT, name=CP-45-interlocking-1
_CP-45-interlocking-1_SPOS, SPOS
*Elset, elset=_CP-46-interlocking-1_SPOS, internal, instance=interlocking-1, generate
 454,  473,    1
*Surface, type=ELEMENT, name=CP-46-interlocking-1
_CP-46-interlocking-1_SPOS, SPOS
*Elset, elset=_CP-47-interlocking-1_SPOS, internal, instance=interlocking-1, generate
 835,  854,    1
*Surface, type=ELEMENT, name=CP-47-interlocking-1
_CP-47-interlocking-1_SPOS, SPOS
*Elset, elset=_CP-48-interlocking-1_SPOS, internal, instance=interlocking-1, generate
 474,  505,    1
*Surface, type=ELEMENT, name=CP-48-interlocking-1
_CP-48-interlocking-1_SPOS, SPOS
*Elset, elset=_CP-49-interlocking-1_SPOS, internal, instance=interlocking-1, generate
 803,  834,    1
*Surface, type=ELEMENT, name=CP-49-interlocking-1
_CP-49-interlocking-1_SPOS, SPOS
*Elset, elset=_CP-50-interlocking-1_SNEG, internal, instance=interlocking-1, generate
 651,  730,    1
*Surface, type=ELEMENT, name=CP-50-interlocking-1
_CP-50-interlocking-1_SNEG, SNEG
*Elset, elset=_CP-51-interlocking-1_SPOS, internal, instance=interlocking-1, generate
 651,  730,    1
*Surface, type=ELEMENT, name=CP-51-interlocking-1
_CP-51-interlocking-1_SPOS, SPOS
*Elset, elset=_CP-52-interlocking-1_SPOS, internal, instance=interlocking-1, generate
 855,  874,    1
*Surface, type=ELEMENT, name=CP-52-interlocking-1
_CP-52-interlocking-1_SPOS, SPOS
*Elset, elset=_CP-53-interlocking-1_SPOS, internal, instance=interlocking-1, generate
 1236,  1255,     1
*Surface, type=ELEMENT, name=CP-53-interlocking-1
_CP-53-interlocking-1_SPOS, SPOS
*Elset, elset=_CP-54-interlocking-1_SPOS, internal, instance=interlocking-1, generate
 875,  906,    1
*Surface, type=ELEMENT, name=CP-54-interlocking-1
_CP-54-interlocking-1_SPOS, SPOS
*Elset, elset=_CP-55-interlocking-1_SPOS, internal, instance=interlocking-1, generate
 1204,  1235,     1
*Surface, type=ELEMENT, name=CP-55-interlocking-1
_CP-55-interlocking-1_SPOS, SPOS
*Elset, elset=_CP-56-interlocking-1_SNEG, internal, instance=interlocking-1, generate
 1052,  1131,     1
*Surface, type=ELEMENT, name=CP-56-interlocking-1
_CP-56-interlocking-1_SNEG, SNEG
*Elset, elset=_CP-57-interlocking-1_SPOS, internal, instance=interlocking-1, generate
 1052,  1131,     1
*Surface, type=ELEMENT, name=CP-57-interlocking-1
_CP-57-interlocking-1_SPOS, SPOS
*Elset, elset=_CP-58-interlocking-1_SNEG, internal, instance=interlocking-1, generate
 1453,  1532,     1
*Surface, type=ELEMENT, name=CP-58-interlocking-1
_CP-58-interlocking-1_SNEG, SNEG
*Elset, elset=_CP-59-interlocking-1_SPOS, internal, instance=interlocking-1, generate
 1453,  1532,     1
*Surface, type=ELEMENT, name=CP-59-interlocking-1
_CP-59-interlocking-1_SPOS, SPOS
*Elset, elset=_Surf-56_SPOS, internal, instance=interlocking-1, generate
 1513,  1532,     1
*Surface, type=ELEMENT, name=Surf-56
_Surf-56_SPOS, SPOS
*Elset, elset=_Surf-57_SPOS, internal, instance=interlocking-1, generate
 1361,  1380,     1
*Surface, type=ELEMENT, name=Surf-57
_Surf-57_SPOS, SPOS
*Rigid Body, ref node=interlocking-1.interlocking-RefPt_, elset=interlocking-1.interlocking
*End Assembly
** 
** MATERIALS
** 
*Material, name=high-strength
*Elastic
 2e+12, 0.3
** 
** INTERACTION PROPERTIES
** 
*Surface Interaction, name=IntProp-1
1.,
*Friction
0.,
*Surface Behavior, pressure-overclosure=HARD
** 
** INTERACTIONS
** 
** Interaction: CP-1-interlocking-1-interlocking-1
*Contact Pair, interaction=IntProp-1, type=SURFACE TO SURFACE
CP-2-interlocking-1, CP-1-interlocking-1
** Interaction: CP-2-interlocking-1-interlocking-1
*Contact Pair, interaction=IntProp-1, type=SURFACE TO SURFACE
CP-39-interlocking-1, CP-38-interlocking-1
** Interaction: CP-3-interlocking-1-interlocking-1
*Contact Pair, interaction=IntProp-1, type=SURFACE TO SURFACE
CP-41-interlocking-1, CP-40-interlocking-1
** Interaction: CP-4-interlocking-1-interlocking-1
*Contact Pair, interaction=IntProp-1, type=SURFACE TO SURFACE
CP-43-interlocking-1, CP-42-interlocking-1
** Interaction: CP-5-interlocking-1-interlocking-1
*Contact Pair, interaction=IntProp-1, type=SURFACE TO SURFACE
CP-45-interlocking-1, CP-44-interlocking-1
** Interaction: CP-6-interlocking-1-interlocking-1
*Contact Pair, interaction=IntProp-1, type=SURFACE TO SURFACE
CP-47-interlocking-1, CP-46-interlocking-1
** Interaction: CP-7-interlocking-1-interlocking-1
*Contact Pair, interaction=IntProp-1, type=SURFACE TO SURFACE
CP-49-interlocking-1, CP-48-interlocking-1
** Interaction: CP-8-interlocking-1-interlocking-1
*Contact Pair, interaction=IntProp-1, type=SURFACE TO SURFACE
CP-51-interlocking-1, CP-50-interlocking-1
** Interaction: CP-9-interlocking-1-interlocking-1
*Contact Pair, interaction=IntProp-1, type=SURFACE TO SURFACE
CP-53-interlocking-1, CP-52-interlocking-1
** Interaction: CP-10-interlocking-1-interlocking-1
*Contact Pair, interaction=IntProp-1, type=SURFACE TO SURFACE
CP-55-interlocking-1, CP-54-interlocking-1
** Interaction: CP-11-interlocking-1-interlocking-1
*Contact Pair, interaction=IntProp-1, type=SURFACE TO SURFACE
CP-57-interlocking-1, CP-56-interlocking-1
** Interaction: CP-12-interlocking-1-interlocking-1
*Contact Pair, interaction=IntProp-1, type=SURFACE TO SURFACE
CP-59-interlocking-1, CP-58-interlocking-1
** ----------------------------------------------------------------
** 
** STEP: Step-1
** 
*Step, name=Step-1, nlgeom=NO
*Static
1., 1., 1e-05, 1.
** 
** BOUNDARY CONDITIONS
** 
** Name: BC-2 Type: Symmetry/Antisymmetry/Encastre
*Boundary
Set-2, ENCASTRE
** 
** LOADS
** 
** Name: Load-1   Type: Pressure
*Dsload
Surf-57, P, 100.
** 
** OUTPUT REQUESTS
** 
*Restart, write, frequency=0
** 
** FIELD OUTPUT: F-Output-1
** 
*Output, field, variable=PRESELECT
** 
** HISTORY OUTPUT: H-Output-1
** 
*Output, history, variable=PRESELECT
*End Step
