*Heading
** Job name: script-run-1 Model name: two-cubes
** Generated by: Abaqus/CAE 2023
*Preprint, echo=NO, model=NO, history=NO, contact=NO
**
** PARTS
**
*Part, name=PART-1_geom
*Node
      1,           0.,           0.,           5.
      2,          10.,           0.,           5.
      3,          10.,          10.,           5.
      4,           0.,          10.,           5.
      5,           0.,          10.,           0.
      6,           0.,           0.,           0.
      7,          10.,           0.,           0.
      8,          10.,          10.,           0.
      9,           0.,           0.,   10.0010004
     10,          10.,           0.,   10.0010004
     11,          10.,          10.,   10.0010004
     12,           0.,          10.,   10.0010004
     13,           0.,          10.,   5.00099993
     14,           0.,           0.,   5.00099993
     15,          10.,           0.,   5.00099993
     16,          10.,          10.,   5.00099993
     17,           1.,           0.,           5.
     18,           2.,           0.,           5.
     19,           3.,           0.,           5.
     20,           4.,           0.,           5.
** ... 13542 like lines cut
*Element, type=C3D10
   1,  486,  135,  901,  491, 1953, 1952, 1951, 1955, 1954, 1956
   2,  902,  903,  904,  905, 1959, 1958, 1957, 1961, 1960, 1962
   3,  902,  906,  907,  908, 1965, 1964, 1963, 1967, 1966, 1968
   4,  902,  909,  904,  910, 1970, 1969, 1957, 1972, 1971, 1973
   5,  902,  911,  912,  913, 1976, 1975, 1974, 1978, 1977, 1979
   6,  902,  908,  913,  914, 1967, 1980, 1978, 1982, 1981, 1983
   7,  907,  906,  915,  916, 1964, 1985, 1984, 1987, 1986, 1988
   8,  907,  906,  909,  915, 1964, 1990, 1989, 1984, 1985, 1991
   9,  902,  907,  910,  912, 1963, 1992, 1972, 1974, 1993, 1994
  10,  911,  908,  902,  907, 1995, 1967, 1976, 1996, 1968, 1963
  11,  907,  917,  915,  910, 1998, 1997, 1984, 1992, 1999, 2000
  12,  918,  919,  920,  921, 2003, 2002, 2001, 2005, 2004, 2006
  13,  918,  922,  923,  924, 2009, 2008, 2007, 2011, 2010, 2012
  14,  918,  925,  923,  926, 2014, 2013, 2007, 2016, 2015, 2017
  15,  918,  927,  928,  929, 2020, 2019, 2018, 2022, 2021, 2023
  16,  918,  930,  931,  922, 2026, 2025, 2024, 2009, 2027, 2028
  17,  932,  933,  934,  935, 2031, 2030, 2029, 2033, 2032, 2034
  18,  932,  936,  937,  938, 2037, 2036, 2035, 2039, 2038, 2040
  19,  932,  939,  940,  938, 2043, 2042, 2041, 2039, 2044, 2045
  20,  941,  932,  940,  934, 2047, 2041, 2046, 2048, 2029, 2049
** ... 8748 like lines cut
*Nset, nset=Set-1, generate
     1,  13562,      1
*Elset, elset=Set-1, generate
    1,  8768,     1
** Section: Section-1
*Solid Section, elset=Set-1, material=high-strength
,
*End Part
**  
**
** ASSEMBLY
**
*Assembly, name=Assembly
**  
*Instance, name=PART-1_geom-1, part=PART-1_geom
*End Instance
**  
*Nset, nset=Set-2, instance=PART-1_geom-1, generate
 5,  8,  1
*Nset, nset=Set-4, instance=PART-1_geom-1, generate
  9,  12,   1
*Elset, elset=_Surf-6_S3, internal, instance=PART-1_geom-1
 4493, 4578, 4610, 4649, 5074, 5136, 5488, 5496, 5578, 5604, 5727, 5792, 5927, 5928, 5975, 5994
 5998, 5999, 6021, 6027, 6047, 6072, 6074, 6092, 6102, 6105, 6112, 6119, 6127, 6129, 6130, 6137
 6141, 6143, 6144, 6146, 6152, 6156, 6165, 6168, 6171, 6174, 6186, 6191, 6196, 6198, 6214, 6226
 6227, 6228, 6245, 6254, 6260, 6264, 6279, 6283, 6288, 6291, 6296, 6311, 6321, 6343, 6345, 6355
 6359, 6372, 6373, 6374, 6377, 6379, 6403, 6407, 6408, 6414, 6420, 6421, 6437, 6444, 6445, 6451
 6456, 6460, 6462, 6464, 6466, 6474, 6476, 6478, 6479, 6483, 6488, 6494, 6501, 6508, 6512, 6513
 6517, 6519, 6535, 6541, 6544, 6547, 6554, 6555, 6567, 6570, 6575, 6576, 6590, 6604, 6609, 6610
 6615, 6621, 6622, 6623, 6628, 6631, 6632, 6637, 6640, 6644, 6651, 6652, 6666, 6672, 6676, 6677
 6679, 6680, 6683, 6690, 6694, 6723, 6727, 6744, 6752, 6761, 6762, 6769, 6775, 6791, 6804, 6810
 6811, 6812, 6816, 6817, 6821, 6822, 6828, 6830, 6848, 6853, 6857, 6873, 6879, 6886, 6890, 6895
 6954, 6992, 6993, 6994, 6999, 7002, 7003, 7008, 7009, 7010, 7022, 7027, 7036, 7038, 7039, 7041
 7071, 7080, 7141, 7161, 7172, 7192, 7197, 7208, 7219, 7225, 7233, 7242, 7280, 7304, 7375, 7386
 7415, 7422, 7423, 7436, 7443, 7487, 7529, 8158, 8194, 8389, 8686
*Elset, elset=_Surf-6_S4, internal, instance=PART-1_geom-1
 4401, 5544, 5549, 5772, 5972, 6257, 6340, 6380, 6737, 7102, 7212, 7579, 7830
*Elset, elset=_Surf-6_S2, internal, instance=PART-1_geom-1
 6045, 6116, 6154, 6224, 6435, 6507, 6605, 6739, 6823, 7194
*Elset, elset=_Surf-6_S1, internal, instance=PART-1_geom-1
 6703, 6808, 7266, 8024
*Surface, type=ELEMENT, name=Surf-6
_Surf-6_S3, S3
_Surf-6_S4, S4
_Surf-6_S2, S2
_Surf-6_S1, S1
*End Assembly
** 
** MATERIALS
** 
*Material, name=high-strength
*Elastic
 2e+12, 0.3
** 
** INTERACTION PROPERTIES
** 
*Surface Interaction, name=IntProp-1
1.,
*Friction
0.,
*Surface Behavior, pressure-overclosure=HARD
** ----------------------------------------------------------------
** 
** STEP: Step-1
** 
*Step, name=Step-1, nlgeom=NO
*Static
1., 1., 1e-05, 1.
** 
** BOUNDARY CONDITIONS
** 
** Name: BC-2 Type: Symmetry/Antisymmetry/Encastre
*Boundary
Set-2, ENCASTRE
** Name: BC-3 Type: Symmetry/Antisymmetry/Encastre
*Boundary
Set-4, ZSYMM
** 
** LOADS
** 
** Name: Load-2   Type: Pressure
*Dsload
Surf-6, P, 100.
** 
** OUTPUT REQUESTS
** 
*Restart, write, frequency=0
** 
** FIELD OUTPUT: F-Output-1
** 
*Output, field, variable=PRESELECT
** 
** HISTORY OUTPUT: H-Output-1
** 
*Output, history, variable=PRESELECT
*End Step
